AF1600.mol
  ChemDraw05121709532D

 23 22  0  0  0  0  0  0  0  0999 V2000
   -2.8922    0.6611    0.0000 *   0  0  0  0  0  0  0  0  0  0  0  0
   -2.1777    1.0736    0.0000 C   0  0  0  0  0  0  0  0  0  0  0  0
   -1.4632    0.6611    0.0000 C   0  0  0  0  0  0  0  0  0  0  0  0
   -0.7487    1.0736    0.0000 *   0  0  0  0  0  0  0  0  0  0  0  0
   -1.4632   -0.1639    0.0000 F   0  0  0  0  0  0  0  0  0  0  0  0
   -1.4632    1.4861    0.0000 F   0  0  0  0  0  0  0  0  0  0  0  0
   -2.1777    1.8986    0.0000 F   0  0  0  0  0  0  0  0  0  0  0  0
   -2.1777    0.2486    0.0000 F   0  0  0  0  0  0  0  0  0  0  0  0
    1.8758    0.6085    0.0000 C   0  0  0  0  0  0  0  0  0  0  0  0
    1.0508    0.6085    0.0000 C   0  0  0  0  0  0  0  0  0  0  0  0
    0.7958   -0.1761    0.0000 O   0  0  0  0  0  0  0  0  0  0  0  0
    1.4633   -0.6611    0.0000 C   0  0  0  0  0  0  0  0  0  0  0  0
    2.1307   -0.1761    0.0000 O   0  0  0  0  0  0  0  0  0  0  0  0
    2.1777   -1.0736    0.0000 C   0  0  0  0  0  0  0  0  0  0  0  0
    0.7488   -1.0736    0.0000 C   0  0  0  0  0  0  0  0  0  0  0  0
    2.8922   -0.6611    0.0000 F   0  0  0  0  0  0  0  0  0  0  0  0
    2.8922   -1.4861    0.0000 F   0  0  0  0  0  0  0  0  0  0  0  0
    2.1777   -1.8986    0.0000 F   0  0  0  0  0  0  0  0  0  0  0  0
   -0.0481   -0.8600    0.0000 F   0  0  0  0  0  0  0  0  0  0  0  0
    0.0343   -1.4861    0.0000 F   0  0  0  0  0  0  0  0  0  0  0  0
    0.7488   -1.8986    0.0000 F   0  0  0  0  0  0  0  0  0  0  0  0
    2.5902    1.0210    0.0000 *   0  0  0  0  0  0  0  0  0  0  0  0
    0.3363    1.0210    0.0000 *   0  0  0  0  0  0  0  0  0  0  0  0
  1  2  1  0      
  2  3  1  0      
  3  4  1  0      
  3  5  1  0      
  3  6  1  0      
  2  7  1  0      
  2  8  1  0      
  9 10  1  0      
 10 11  1  0      
 11 12  1  0      
 12 13  1  0      
 13  9  1  0      
 12 14  1  0      
 12 15  1  0      
 14 16  1  0      
 14 17  1  0      
 14 18  1  0      
 15 19  1  0      
 15 20  1  0      
 15 21  1  0      
  9 22  1  0      
 10 23  1  0      
M  STY  3   1 COP   2 SRU   3 SRU
M  SLB  1   1   1
M  SST  1   1 RAN
M  SAL   1 15   1   2   3   4   5   6   7   8   9  10  11  12  13  14  15
M  SAL   1  8  16  17  18  19  20  21  22  23
M  SDI   1  4    4.6533    3.1935    4.6533   -2.6915
M  SDI   1  4   -4.1742   -2.6915   -4.1742    3.1935
M  SLB  1   2   2
M  SCN  3   1 HT    2 HT    3 HT
M  SAL   2  6   2   3   5   6   7   8
M  SBL   2  2   1   3
M  SMT   2 n
M  SDI   2  4   -2.6068    0.5718   -2.6068    1.1769
M  SDI   2  4   -1.0667    1.1769   -1.0667    0.5718
M  SLB  1   3   3
M  SAL   3 13   9  10  11  12  13  14  15  16  17  18  19  20  21
M  SBL   3  2  22  21
M  SDI   3  4    0.6658    0.3610    0.6658    1.3785
M  SDI   3  4    2.2883    1.3785    2.2883    0.3610
M  END
