chitosan.mol
  ChemDraw01041714502D

 13 13  0  0  0  0  0  0  0  0999 V2000
   -0.6035    0.0000    0.0000 C   0  0  0  0  0  0  0  0  0  0  0  0
   -0.1910   -0.7145    0.0000 C   0  0  0  0  0  0  0  0  0  0  0  0
    0.6071   -0.5054    0.0000 C   0  0  0  0  0  0  0  0  0  0  0  0
    1.4004   -0.7145    0.0000 C   0  0  0  0  0  0  0  0  0  0  0  0
    0.9879    0.0000    0.0000 O   0  0  0  0  0  0  0  0  0  0  0  0
    0.1898   -0.2091    0.0000 C   0  0  0  0  0  0  0  0  0  0  0  0
   -0.2227    0.5054    0.0000 C   0  0  0  0  0  0  0  0  0  0  0  0
    0.1898    1.2199    0.0000 O   0  0  0  0  0  0  0  0  0  0  0  0
    2.1971   -0.5010    0.0000 *   0  0  0  0  0  0  0  0  0  0  0  0
   -1.4004   -0.2136    0.0000 O   0  0  0  0  0  0  0  0  0  0  0  0
   -2.1971   -0.4271    0.0000 *   0  0  0  0  0  0  0  0  0  0  0  0
   -0.9879   -0.5010    0.0000 O   0  0  0  0  0  0  0  0  0  0  0  0
    1.0196   -1.2199    0.0000 N   0  0  0  0  0  0  0  0  0  0  0  0
  1  2  1  0      
  2  3  1  0      
  3  4  1  0      
  4  5  1  0      
  5  6  1  0      
  6  1  1  0      
  6  7  1  0      
  7  8  1  0      
  4  9  1  0      
  1 10  1  0      
 10 11  1  0      
  2 12  1  0      
  3 13  1  0      
M  STY  1   1 SRU
M  SLB  1   1   1
M  SCN  1   1 HT
M  SAL   1 11   1   2   3   4   5   6   7   8  10  12  13
M  SBL   1  2   9  11
M  SDI   1  4    1.9087    0.5108    1.9087   -1.2767
M  SDI   1  4   -1.9138   -1.2767   -1.9138    0.5108
M  END
