d-polyethylene.mol
  ChemDraw01051717582D

  8  7  0  0  0  0  0  0  0  0999 V2000
   -1.0717   -0.2062    0.0000 *   0  0  0  0  0  0  0  0  0  0  0  0
   -0.3572    0.2062    0.0000 C   0  0  0  0  0  0  0  0  0  0  0  0
    0.3572   -0.2062    0.0000 C   0  0  0  0  0  0  0  0  0  0  0  0
    1.0717    0.2062    0.0000 *   0  0  0  0  0  0  0  0  0  0  0  0
   -0.3572    1.0312    0.0000 D   0  0  0  0  0  0  0  0  0  0  0  0
   -0.3572   -0.6188    0.0000 D   0  0  0  0  0  0  0  0  0  0  0  0
    0.3572    0.6188    0.0000 D   0  0  0  0  0  0  0  0  0  0  0  0
    0.3572   -1.0312    0.0000 D   0  0  0  0  0  0  0  0  0  0  0  0
  1  2  1  0      
  2  3  1  0      
  3  4  1  0      
  2  5  1  0      
  2  6  1  0      
  3  7  1  0      
  3  8  1  0      
M  STY  1   1 SRU
M  SLB  1   1   1
M  SCN  1   1 HT
M  SAL   1  6   2   3   5   6   7   8
M  SBL   1  2   1   3
M  SDI   1  4   -0.7863   -0.2955   -0.7863    0.3095
M  SDI   1  4    0.7537    0.3095    0.7537   -0.2955
M  END
