d-polypropylene.mol
  ChemDraw01051718002D

 11 10  0  0  0  0  0  0  0  0999 V2000
   -1.0717   -0.6187    0.0000 *   0  0  0  0  0  0  0  0  0  0  0  0
   -0.3572   -0.2062    0.0000 C   0  0  0  0  0  0  0  0  0  0  0  0
    0.3572   -0.6187    0.0000 C   0  0  0  0  0  0  0  0  0  0  0  0
    1.0717   -0.2062    0.0000 *   0  0  0  0  0  0  0  0  0  0  0  0
   -0.3572    0.6187    0.0000 C   0  0  0  0  0  0  0  0  0  0  0  0
    0.3572   -1.4437    0.0000 D   0  0  0  0  0  0  0  0  0  0  0  0
    0.3572    0.2063    0.0000 D   0  0  0  0  0  0  0  0  0  0  0  0
   -0.3572   -1.0312    0.0000 D   0  0  0  0  0  0  0  0  0  0  0  0
   -0.3572    1.4437    0.0000 D   0  0  0  0  0  0  0  0  0  0  0  0
    0.3573    1.0312    0.0000 D   0  0  0  0  0  0  0  0  0  0  0  0
   -1.0717    1.0312    0.0000 D   0  0  0  0  0  0  0  0  0  0  0  0
  1  2  1  0      
  2  3  1  0      
  3  4  1  0      
  2  5  1  0      
  3  6  1  0      
  3  7  1  0      
  2  8  1  0      
  5  9  1  0      
  5 10  1  0      
  5 11  1  0      
M  STY  1   1 SRU
M  SLB  1   1   1
M  SCN  1   1 HT
M  SAL   1  9   2   3   5   6   7   8   9  10  11
M  SBL   1  2   1   3
M  SDI   1  4   -0.8414   -0.7289   -0.8414    0.0137
M  SDI   1  4    0.7813    0.0137    0.7813   -0.7289
M  END
