d-polyoctylene_oxide.mol
  ChemDraw01051717552D

 27 26  0  0  0  0  0  0  0  0999 V2000
   -3.5724   -0.2063    0.0000 *   0  0  0  0  0  0  0  0  0  0  0  0
   -2.8579    0.2061    0.0000 O   0  0  0  0  0  0  0  0  0  0  0  0
   -2.1434   -0.2063    0.0000 C   0  0  0  0  0  0  0  0  0  0  0  0
   -1.4289    0.2061    0.0000 C   0  0  0  0  0  0  0  0  0  0  0  0
   -0.7145   -0.2063    0.0000 C   0  0  0  0  0  0  0  0  0  0  0  0
    0.0000    0.2062    0.0000 C   0  0  0  0  0  0  0  0  0  0  0  0
    0.7145   -0.2062    0.0000 C   0  0  0  0  0  0  0  0  0  0  0  0
    1.4289    0.2063    0.0000 C   0  0  0  0  0  0  0  0  0  0  0  0
    2.1434   -0.2062    0.0000 C   0  0  0  0  0  0  0  0  0  0  0  0
    2.8579    0.2063    0.0000 C   0  0  0  0  0  0  0  0  0  0  0  0
    3.5724   -0.2062    0.0000 *   0  0  0  0  0  0  0  0  0  0  0  0
   -2.1434   -1.0313    0.0000 D   0  0  0  0  0  0  0  0  0  0  0  0
   -1.4289   -0.6189    0.0000 D   0  0  0  0  0  0  0  0  0  0  0  0
   -0.7145   -1.0313    0.0000 D   0  0  0  0  0  0  0  0  0  0  0  0
    0.0000   -0.6188    0.0000 D   0  0  0  0  0  0  0  0  0  0  0  0
    0.7145   -1.0312    0.0000 D   0  0  0  0  0  0  0  0  0  0  0  0
    1.4289   -0.6187    0.0000 D   0  0  0  0  0  0  0  0  0  0  0  0
    2.1434   -1.0312    0.0000 D   0  0  0  0  0  0  0  0  0  0  0  0
    2.8579   -0.6187    0.0000 D   0  0  0  0  0  0  0  0  0  0  0  0
    2.8579    1.0313    0.0000 D   0  0  0  0  0  0  0  0  0  0  0  0
    2.1434    0.6188    0.0000 D   0  0  0  0  0  0  0  0  0  0  0  0
    1.4289    1.0313    0.0000 D   0  0  0  0  0  0  0  0  0  0  0  0
    0.7145    0.6188    0.0000 D   0  0  0  0  0  0  0  0  0  0  0  0
    0.0000    1.0312    0.0000 D   0  0  0  0  0  0  0  0  0  0  0  0
   -0.7145    0.6187    0.0000 D   0  0  0  0  0  0  0  0  0  0  0  0
   -1.4289    1.0311    0.0000 D   0  0  0  0  0  0  0  0  0  0  0  0
   -2.1434    0.6187    0.0000 D   0  0  0  0  0  0  0  0  0  0  0  0
  1  2  1  0      
  2  3  1  0      
  3  4  1  0      
  4  5  1  0      
  5  6  1  0      
  6  7  1  0      
  7  8  1  0      
  8  9  1  0      
  9 10  1  0      
 10 11  1  0      
  3 12  1  0      
  4 13  1  0      
  5 14  1  0      
  6 15  1  0      
  7 16  1  0      
  8 17  1  0      
  9 18  1  0      
 10 19  1  0      
 10 20  1  0      
  9 21  1  0      
  8 22  1  0      
  7 23  1  0      
  6 24  1  0      
  5 25  1  0      
  4 26  1  0      
  3 27  1  0      
M  STY  1   1 SRU
M  SLB  1   1   1
M  SCN  1   1 HT
M  SAL   1 15   2   3   4   5   6   7   8   9  10  12  13  14  15  16  17
M  SAL   1 10  18  19  20  21  22  23  24  25  26  27
M  SBL   1  2   1  10
M  SDI   1  4   -3.3574   -0.5367   -3.3574    0.3983
M  SDI   1  4    3.2149    0.3983    3.2149   -0.5367
M  END
