d-poly(methyl_methacrylate).mol
  ChemDraw01091718052D

 17 16  0  0  0  0  0  0  0  0999 V2000
   -1.0717   -0.6741    0.0000 *   0  0  0  0  0  0  0  0  0  0  0  0
   -0.3572   -1.0865    0.0000 C   0  0  0  0  0  0  0  0  0  0  0  0
    0.3572   -0.6741    0.0000 C   0  0  0  0  0  0  0  0  0  0  0  0
    1.0717   -1.0865    0.0000 *   0  0  0  0  0  0  0  0  0  0  0  0
   -0.0553   -1.3885    0.0000 C   0  0  0  0  0  0  0  0  0  0  0  0
    0.3572    0.1509    0.0000 C   0  0  0  0  0  0  0  0  0  0  0  0
    1.0717    0.5635    0.0000 O   0  0  0  0  0  0  0  0  0  0  0  0
   -0.3572    0.5635    0.0000 O   0  0  0  0  0  0  0  0  0  0  0  0
   -0.3572    1.3885    0.0000 C   0  0  0  0  0  0  0  0  0  0  0  0
   -0.3572   -0.2615    0.0000 D   0  0  0  0  0  0  0  0  0  0  0  0
   -0.3572   -1.9115    0.0000 D   0  0  0  0  0  0  0  0  0  0  0  0
   -0.0553   -2.2135    0.0000 D   0  0  0  0  0  0  0  0  0  0  0  0
    0.5281   -1.9719    0.0000 D   0  0  0  0  0  0  0  0  0  0  0  0
    0.7697   -1.3885    0.0000 D   0  0  0  0  0  0  0  0  0  0  0  0
    0.2262    1.9719    0.0000 D   0  0  0  0  0  0  0  0  0  0  0  0
   -0.3572    2.2135    0.0000 D   0  0  0  0  0  0  0  0  0  0  0  0
   -0.9406    1.9719    0.0000 D   0  0  0  0  0  0  0  0  0  0  0  0
  1  2  1  0      
  2  3  1  0      
  3  4  1  0      
  3  5  1  0      
  3  6  1  0      
  6  7  2  0      
  6  8  1  0      
  8  9  1  0      
  2 10  1  0      
  2 11  1  0      
  5 12  1  0      
  5 13  1  0      
  5 14  1  0      
  9 15  1  0      
  9 16  1  0      
  9 17  1  0      
M  STY  1   1 SRU
M  SLB  1   1   1
M  SCN  1   1 HT 
M  SAL   1 15   2   3   5   6   7   8   9  10  11  12  13  14  15  16  17
M  SBL   1  2   1   3
M  SMT   1 n
M  SDI   1  4   -0.6465   -1.1965   -0.6465   -0.5090
M  SDI   1  4    0.7010   -0.5090    0.7010   -1.1965
M  END
