d-polystyrene.mol
  ChemDraw01051718022D

 18 18  0  0  0  0  0  0  0  0999 V2000
   -0.7145    1.0312    0.0000 C   0  0  0  0  0  0  0  0  0  0  0  0
   -0.7145    0.2062    0.0000 C   0  0  0  0  0  0  0  0  0  0  0  0
    0.0000   -0.2062    0.0000 C   0  0  0  0  0  0  0  0  0  0  0  0
    0.7144    0.2062    0.0000 C   0  0  0  0  0  0  0  0  0  0  0  0
    0.7144    1.0312    0.0000 C   0  0  0  0  0  0  0  0  0  0  0  0
    0.0000    1.4438    0.0000 C   0  0  0  0  0  0  0  0  0  0  0  0
    0.0000   -1.0312    0.0000 C   0  0  0  0  0  0  0  0  0  0  0  0
   -0.7145   -1.4438    0.0000 *   0  0  0  0  0  0  0  0  0  0  0  0
    0.7144   -1.4438    0.0000 C   0  0  0  0  0  0  0  0  0  0  0  0
    1.4289   -1.0312    0.0000 *   0  0  0  0  0  0  0  0  0  0  0  0
    0.7144   -2.2688    0.0000 D   0  0  0  0  0  0  0  0  0  0  0  0
    0.7144   -0.6188    0.0000 D   0  0  0  0  0  0  0  0  0  0  0  0
    0.0000   -1.8562    0.0000 D   0  0  0  0  0  0  0  0  0  0  0  0
    1.4289   -0.2063    0.0000 D   0  0  0  0  0  0  0  0  0  0  0  0
    1.4289    1.4437    0.0000 D   0  0  0  0  0  0  0  0  0  0  0  0
    0.0000    2.2688    0.0000 D   0  0  0  0  0  0  0  0  0  0  0  0
   -1.4289   -0.2063    0.0000 D   0  0  0  0  0  0  0  0  0  0  0  0
   -1.4289    1.4437    0.0000 D   0  0  0  0  0  0  0  0  0  0  0  0
  1  2  2  0      
  2  3  1  0      
  3  4  2  0      
  4  5  1  0      
  5  6  2  0      
  6  1  1  0      
  3  7  1  0      
  7  8  1  0      
  7  9  1  0      
  9 10  1  0      
  9 11  1  0      
  9 12  1  0      
  7 13  1  0      
  4 14  1  0      
  5 15  1  0      
  6 16  1  0      
  2 17  1  0      
  1 18  1  0      
M  STY  1   1 SRU
M  SLB  1   1   1
M  SCN  1   1 HT
M  SCN  1   1 EU 
M  SAL   1 15   1   2   3   4   5   6   7   9  11  12  13  14  15  16  17
M  SAL   1  1  18
M  SBL   1  2   8  10
M  SMT   1 n
M  SDI   1  4   -0.5116   -1.7464   -0.5116   -0.7839
M  SDI   1  4    1.1384   -0.7839    1.1384   -1.7464
M  END
