d-poly(ethylenepropylene).mol
  ChemDraw01111718092D

 17 16  0  0  0  0  0  0  0  0999 V2000
   -1.7860   -0.6188    0.0000 *   0  0  0  0  0  0  0  0  0  0  0  0
   -1.0716   -0.2062    0.0000 C   0  0  0  0  0  0  0  0  0  0  0  0
   -0.3573   -0.6188    0.0000 C   0  0  0  0  0  0  0  0  0  0  0  0
    0.3571   -0.2062    0.0000 C   0  0  0  0  0  0  0  0  0  0  0  0
    1.0716   -0.6187    0.0000 C   0  0  0  0  0  0  0  0  0  0  0  0
    1.7860   -0.2061    0.0000 *   0  0  0  0  0  0  0  0  0  0  0  0
    0.3571    0.6188    0.0000 C   0  0  0  0  0  0  0  0  0  0  0  0
   -1.0716    0.6188    0.0000 D   0  0  0  0  0  0  0  0  0  0  0  0
   -1.0716   -1.0312    0.0000 D   0  0  0  0  0  0  0  0  0  0  0  0
   -0.3573    0.2062    0.0000 D   0  0  0  0  0  0  0  0  0  0  0  0
   -0.3573   -1.4438    0.0000 D   0  0  0  0  0  0  0  0  0  0  0  0
    1.0716    0.2063    0.0000 D   0  0  0  0  0  0  0  0  0  0  0  0
    1.0716   -1.4437    0.0000 D   0  0  0  0  0  0  0  0  0  0  0  0
    0.3571   -1.0312    0.0000 D   0  0  0  0  0  0  0  0  0  0  0  0
   -0.3574    1.0313    0.0000 D   0  0  0  0  0  0  0  0  0  0  0  0
    1.0716    1.0313    0.0000 D   0  0  0  0  0  0  0  0  0  0  0  0
    0.3571    1.4438    0.0000 D   0  0  0  0  0  0  0  0  0  0  0  0
  1  2  1  0      
  2  3  1  0      
  3  4  1  0      
  4  5  1  0      
  5  6  1  0      
  4  7  1  0      
  2  8  1  0      
  2  9  1  0      
  3 10  1  0      
  3 11  1  0      
  5 12  1  0      
  5 13  1  0      
  4 14  1  0      
  7 15  1  0      
  7 16  1  0      
  7 17  1  0      
M  STY  1   1 SRU
M  SLB  1   1   1
M  SCN  1   1 HT 
M  SAL   1 15   2   3   4   5   7   8   9  10  11  12  13  14  15  16  17
M  SBL   1  2   1   5
M  SMT   1 n
M  SDI   1  4   -1.5288   -0.8056   -1.5288    0.0469
M  SDI   1  4    1.4687    0.0469    1.4687   -0.8056
M  END
