d-polyhexene_oxide.mol
  ChemDraw01051717562D

 21 20  0  0  0  0  0  0  0  0999 V2000
   -2.8579   -0.2063    0.0000 *   0  0  0  0  0  0  0  0  0  0  0  0
   -2.1434    0.2061    0.0000 O   0  0  0  0  0  0  0  0  0  0  0  0
   -1.4289   -0.2063    0.0000 C   0  0  0  0  0  0  0  0  0  0  0  0
   -0.7144    0.2061    0.0000 C   0  0  0  0  0  0  0  0  0  0  0  0
   -0.0000   -0.2063    0.0000 C   0  0  0  0  0  0  0  0  0  0  0  0
    0.7145    0.2062    0.0000 C   0  0  0  0  0  0  0  0  0  0  0  0
    1.4290   -0.2062    0.0000 C   0  0  0  0  0  0  0  0  0  0  0  0
    2.1434    0.2063    0.0000 C   0  0  0  0  0  0  0  0  0  0  0  0
    2.8579   -0.2062    0.0000 *   0  0  0  0  0  0  0  0  0  0  0  0
   -1.4289   -1.0313    0.0000 D   0  0  0  0  0  0  0  0  0  0  0  0
   -0.7144   -0.6189    0.0000 D   0  0  0  0  0  0  0  0  0  0  0  0
   -0.0000   -1.0313    0.0000 D   0  0  0  0  0  0  0  0  0  0  0  0
    0.7145   -0.6188    0.0000 D   0  0  0  0  0  0  0  0  0  0  0  0
    1.4290   -1.0312    0.0000 D   0  0  0  0  0  0  0  0  0  0  0  0
    2.1434   -0.6187    0.0000 D   0  0  0  0  0  0  0  0  0  0  0  0
    2.1434    1.0313    0.0000 D   0  0  0  0  0  0  0  0  0  0  0  0
    1.4290    0.6188    0.0000 D   0  0  0  0  0  0  0  0  0  0  0  0
    0.7145    1.0312    0.0000 D   0  0  0  0  0  0  0  0  0  0  0  0
   -0.0000    0.6187    0.0000 D   0  0  0  0  0  0  0  0  0  0  0  0
   -0.7144    1.0311    0.0000 D   0  0  0  0  0  0  0  0  0  0  0  0
   -1.4289    0.6187    0.0000 D   0  0  0  0  0  0  0  0  0  0  0  0
  1  2  1  0      
  2  3  1  0      
  3  4  1  0      
  4  5  1  0      
  5  6  1  0      
  6  7  1  0      
  7  8  1  0      
  8  9  1  0      
  3 10  1  0      
  4 11  1  0      
  5 12  1  0      
  6 13  1  0      
  7 14  1  0      
  8 15  1  0      
  8 16  1  0      
  7 17  1  0      
  6 18  1  0      
  5 19  1  0      
  4 20  1  0      
  3 21  1  0      
M  STY  1   1 SRU
M  SLB  1   1   1
M  SCN  1   1 HT
M  SCN  1   1 HT
M  SAL   1 15   2   3   4   5   6   7   8  10  11  12  13  14  15  16  17
M  SAL   1  4  18  19  20  21
M  SBL   1  2   1   8
M  SDI   1  4   -2.6429   -0.5367   -2.6429    0.3983
M  SDI   1  4    2.5544    0.4533    2.5544   -0.4817
M  END
