d-polybutylene_oxide.mol
  ChemDraw01051717532D

 15 14  0  0  0  0  0  0  0  0999 V2000
   -2.1434   -0.2063    0.0000 *   0  0  0  0  0  0  0  0  0  0  0  0
   -1.4290    0.2061    0.0000 O   0  0  0  0  0  0  0  0  0  0  0  0
   -0.7145   -0.2063    0.0000 C   0  0  0  0  0  0  0  0  0  0  0  0
    0.0001    0.2061    0.0000 C   0  0  0  0  0  0  0  0  0  0  0  0
    0.7145   -0.2063    0.0000 C   0  0  0  0  0  0  0  0  0  0  0  0
    1.4289    0.2063    0.0000 C   0  0  0  0  0  0  0  0  0  0  0  0
    2.1434   -0.2062    0.0000 *   0  0  0  0  0  0  0  0  0  0  0  0
    0.0001    1.0311    0.0000 D   0  0  0  0  0  0  0  0  0  0  0  0
   -0.7145   -1.0313    0.0000 D   0  0  0  0  0  0  0  0  0  0  0  0
   -0.7145    0.6187    0.0000 D   0  0  0  0  0  0  0  0  0  0  0  0
    0.0001   -0.6189    0.0000 D   0  0  0  0  0  0  0  0  0  0  0  0
    0.7145    0.6187    0.0000 D   0  0  0  0  0  0  0  0  0  0  0  0
    0.7145   -1.0313    0.0000 D   0  0  0  0  0  0  0  0  0  0  0  0
    1.4289    1.0313    0.0000 D   0  0  0  0  0  0  0  0  0  0  0  0
    1.4289   -0.6187    0.0000 D   0  0  0  0  0  0  0  0  0  0  0  0
  1  2  1  0      
  2  3  1  0      
  3  4  1  0      
  4  5  1  0      
  5  6  1  0      
  6  7  1  0      
  4  8  1  0      
  3  9  1  0      
  3 10  1  0      
  4 11  1  0      
  5 12  1  0      
  5 13  1  0      
  6 14  1  0      
  6 15  1  0      
M  STY  1   1 SRU
M  SLB  1   1   1
M  SCN  1   1 HT
M  SAL   1 13   2   3   4   5   6   8   9  10  11  12  13  14  15
M  SBL   1  2   1   6
M  SDI   1  4   -1.8863   -0.3521   -1.8863    0.3354
M  SDI   1  4    1.7712    0.3354    1.7712   -0.3521
M  END
