ex18adj.mol
  ChemDraw01041714312D

  7  6  0  0  0  0  0  0  0  0999 V2000
   -1.7863    0.6187    0.0000 *   0  0  0  0  0  0  0  0  0  0  0  0
   -1.0718    0.2062    0.0000 C   0  0  0  0  0  0  0  0  0  0  0  0
   -0.3573    0.6187    0.0000 C   0  0  0  0  0  0  0  0  0  0  0  0
    0.3572    0.2062    0.0000 C   0  0  0  0  0  0  0  0  0  0  0  0
    1.0717    0.6187    0.0000 C   0  0  0  0  0  0  0  0  0  0  0  0
    1.7863    0.2062    0.0000 *   0  0  0  0  0  0  0  0  0  0  0  0
    0.3572   -0.6187    0.0000 C   0  0  0  0  0  0  0  0  0  0  0  0
  1  2  1  0      
  2  3  1  0      
  3  4  2  0      
  4  5  1  0      
  5  6  1  0      
  4  7  1  0      
M  STY  1   1 SRU
M  SLB  1   1   1
M  SCN  1   1 HT
M  SCN  1   1 HT 
M  SAL   1  5   2   3   4   5   7
M  SBL   1  2   1   5
M  SMT   1 n
M  SDI   1  4   -1.2632   -0.2337   -1.2632    0.9763
M  SDI   1  4    1.3494    0.9763    1.3494   -0.2337
M  END
