
  ACCLDraw08251621322D

  6  5  0  0  0  0  0  0  0  0999 V2000
   10.1325  -11.7583    0.0000 *   0  0  0  0  0  0  0  0  0  0  0  0
   11.8107  -11.1642    0.0000 C   0  0  0  0  0  0  0  0  0  0  0  0
   12.8206  -11.7509    0.0000 O   0  0  0  0  0  0  0  0  0  0  0  0
   13.8379  -11.1642    0.0000 C   0  0  3  0  0  0  0  0  0  0  0  0
   15.3675  -11.7434    0.0000 *   0  0  0  0  0  0  0  0  0  0  0  0
   13.8379   -9.9836    0.0000 Br  0  0  0  0  0  0  0  0  0  0  0  0
  1  2  1  0  0  0  0
  2  3  1  0  0  0  0
  3  4  1  0  0  0  0
  4  5  1  0  0  0  0
  4  6  1  0  0  0  0
M  STY  1   1 SRU
M  SLB  1   1   1
M  SCN  1   1 HT
M  SCN  1   1 HT 
M  SAL   1  4   2   4   3   6
M  SBL   1  2   1   4
M  SDI   1  4   10.8974  -12.0479   10.8974  -10.8672
M  SDI   1  4   14.3948  -10.8672   14.3948  -12.0405
M  SMT   1 n
M  END
