matrimid.mol
  ChemDraw01051717092D

 44 50  0  0  0  0  0  0  0  0999 V2000
   -5.0028   -0.6723    0.0000 C   0  0  0  0  0  0  0  0  0  0  0  0
   -5.0028    0.1527    0.0000 C   0  0  0  0  0  0  0  0  0  0  0  0
   -5.7874    0.4076    0.0000 C   0  0  0  0  0  0  0  0  0  0  0  0
   -6.2723   -0.2598    0.0000 N   0  0  0  0  0  0  0  0  0  0  0  0
   -5.7874   -0.9273    0.0000 C   0  0  0  0  0  0  0  0  0  0  0  0
   -4.2883   -1.0848    0.0000 C   0  0  0  0  0  0  0  0  0  0  0  0
   -3.5739   -0.6723    0.0000 C   0  0  0  0  0  0  0  0  0  0  0  0
   -3.5739    0.1527    0.0000 C   0  0  0  0  0  0  0  0  0  0  0  0
   -4.2883    0.5652    0.0000 C   0  0  0  0  0  0  0  0  0  0  0  0
   -2.8594    0.5652    0.0000 C   0  0  0  0  0  0  0  0  0  0  0  0
   -7.0973   -0.2598    0.0000 *   0  0  0  0  0  0  0  0  0  0  0  0
   -6.0009    1.2045    0.0000 O   0  0  0  0  0  0  0  0  0  0  0  0
   -2.8594    1.3902    0.0000 O   0  0  0  0  0  0  0  0  0  0  0  0
   -2.1449    0.1527    0.0000 C   0  0  0  0  0  0  0  0  0  0  0  0
   -2.1449   -0.6723    0.0000 C   0  0  0  0  0  0  0  0  0  0  0  0
   -1.4304   -1.0848    0.0000 C   0  0  0  0  0  0  0  0  0  0  0  0
   -0.7160   -0.6723    0.0000 C   0  0  0  0  0  0  0  0  0  0  0  0
   -0.7160    0.1527    0.0000 C   0  0  0  0  0  0  0  0  0  0  0  0
   -1.4304    0.5652    0.0000 C   0  0  0  0  0  0  0  0  0  0  0  0
    0.0686   -0.9273    0.0000 C   0  0  0  0  0  0  0  0  0  0  0  0
    0.5536   -0.2598    0.0000 N   0  0  0  0  0  0  0  0  0  0  0  0
    0.0686    0.4076    0.0000 C   0  0  0  0  0  0  0  0  0  0  0  0
    0.2822    1.2045    0.0000 O   0  0  0  0  0  0  0  0  0  0  0  0
    0.2822   -1.7242    0.0000 O   0  0  0  0  0  0  0  0  0  0  0  0
   -6.0009   -1.7242    0.0000 O   0  0  0  0  0  0  0  0  0  0  0  0
    1.3786   -0.2598    0.0000 C   0  0  0  0  0  0  0  0  0  0  0  0
    1.7911   -0.9743    0.0000 C   0  0  0  0  0  0  0  0  0  0  0  0
    2.6161   -0.9743    0.0000 C   0  0  0  0  0  0  0  0  0  0  0  0
    3.0286   -0.2598    0.0000 C   0  0  0  0  0  0  0  0  0  0  0  0
    2.6161    0.4546    0.0000 C   0  0  0  0  0  0  0  0  0  0  0  0
    1.7911    0.4546    0.0000 C   0  0  0  0  0  0  0  0  0  0  0  0
    3.8536   -0.2598    0.0000 C   0  0  0  0  0  0  0  0  0  0  0  0
    4.6786   -0.2598    0.0000 C   0  0  0  0  0  0  0  0  0  0  0  0
    4.9335    0.5248    0.0000 C   0  0  0  0  0  0  0  0  0  0  0  0
    4.2661    1.0097    0.0000 C   0  0  0  0  0  0  0  0  0  0  0  0
    3.5986    0.5248    0.0000 C   0  0  0  0  0  0  0  0  0  0  0  0
    4.6786    1.7242    0.0000 C   0  0  0  0  0  0  0  0  0  0  0  0
    3.8536    1.7242    0.0000 C   0  0  0  0  0  0  0  0  0  0  0  0
    3.8536   -1.0848    0.0000 C   0  0  0  0  0  0  0  0  0  0  0  0
    5.2619   -0.8432    0.0000 C   0  0  0  0  0  0  0  0  0  0  0  0
    6.0588   -0.6297    0.0000 C   0  0  0  0  0  0  0  0  0  0  0  0
    6.2723    0.1672    0.0000 C   0  0  0  0  0  0  0  0  0  0  0  0
    5.6890    0.7506    0.0000 C   0  0  0  0  0  0  0  0  0  0  0  0
    7.0973    0.1672    0.0000 *   0  0  0  0  0  0  0  0  0  0  0  0
  1  2  2  0      
  2  3  1  0      
  3  4  1  0      
  4  5  1  0      
  5  1  1  0      
  1  6  1  0      
  6  7  2  0      
  7  8  1  0      
  8  9  2  0      
  9  2  1  0      
  8 10  1  0      
  4 11  1  0      
  3 12  2  0      
 10 13  2  0      
 10 14  1  0      
 14 15  2  0      
 15 16  1  0      
 16 17  2  0      
 17 18  1  0      
 18 19  2  0      
 19 14  1  0      
 17 20  1  0      
 20 21  1  0      
 21 22  1  0      
 22 18  1  0      
 22 23  2  0      
 20 24  2  0      
  5 25  2  0      
 21 26  1  0      
 26 27  2  0      
 27 28  1  0      
 28 29  2  0      
 29 30  1  0      
 30 31  2  0      
 31 26  1  0      
 29 32  1  0      
 32 33  1  0      
 33 34  1  0      
 34 35  1  0      
 35 36  1  0      
 36 32  1  0      
 35 37  1  0      
 35 38  1  0      
 32 39  1  0      
 33 40  2  0      
 40 41  1  0      
 41 42  2  0      
 42 43  1  0      
 43 34  2  0      
 42 44  1  0      
M  STY  1   1 SRU
M  SLB  1   1   1
M  SCN  1   1 HT
M  SAL   1 15   1   2   3   4   5   6   7   8   9  10  12  13  14  15  16
M  SAL   1 15  17  18  19  20  21  22  23  24  25  26  27  28  29  30  31
M  SAL   1 12  32  33  34  35  36  37  38  39  40  41  42  43
M  SBL   1  2  12  50
M  SDI   1  4   -6.7353   -1.1398   -6.7353    0.6202
M  SDI   1  4    6.7122    0.6202    6.7122   -1.1398
M  END
