poly(trifluoroethyl methacrylate).mol
  ChemDraw01051717012D

 13 12  0  0  0  0  0  0  0  0999 V2000
   -2.1846   -0.6188    0.0000 *   0  0  0  0  0  0  0  0  0  0  0  0
   -1.4702   -1.0312    0.0000 C   0  0  0  0  0  0  0  0  0  0  0  0
   -0.7557   -0.6188    0.0000 C   0  0  0  0  0  0  0  0  0  0  0  0
   -0.0412   -1.0312    0.0000 *   0  0  0  0  0  0  0  0  0  0  0  0
   -0.7557   -1.4438    0.0000 C   0  0  0  0  0  0  0  0  0  0  0  0
   -0.7557    0.2062    0.0000 C   0  0  0  0  0  0  0  0  0  0  0  0
   -1.4702    0.6188    0.0000 O   0  0  0  0  0  0  0  0  0  0  0  0
   -0.0412    0.6188    0.0000 O   0  0  0  0  0  0  0  0  0  0  0  0
    0.6733    0.2062    0.0000 C   0  0  0  0  0  0  0  0  0  0  0  0
    1.3877    0.6188    0.0000 C   0  0  0  0  0  0  0  0  0  0  0  0
    1.3877    1.4438    0.0000 F   0  0  0  0  0  0  0  0  0  0  0  0
    2.1022    1.0312    0.0000 F   0  0  0  0  0  0  0  0  0  0  0  0
    2.1846    0.4052    0.0000 F   0  0  0  0  0  0  0  0  0  0  0  0
  1  2  1  0      
  2  3  1  0      
  3  4  1  0      
  3  5  1  0      
  3  6  1  0      
  6  7  2  0      
  6  8  1  0      
  8  9  1  0      
  9 10  1  0      
 10 11  1  0      
 10 12  1  0      
 10 13  1  0      
M  STY  1   1 SRU
M  SLB  1   1   1
M  SCN  1   1 HT
M  SAL   1 11   2   3   5   6   7   8   9  10  11  12  13
M  SBL   1  2   1   3
M  SDI   1  4   -1.8546   -1.1687   -1.8546   -0.4813
M  SDI   1  4   -0.3421   -0.4813   -0.3421   -1.1687
M  END
