poly(styrene-ran-acylonitrile).mol
  ChemDraw05121709532D

 16 15  0  0  0  0  0  0  0  0999 V2000
   -2.9142    1.5812    0.0000 C   0  0  0  0  0  0  0  0  0  0  0  0
   -2.9142    0.7562    0.0000 C   0  0  0  0  0  0  0  0  0  0  0  0
   -2.1997    0.3438    0.0000 C   0  0  0  0  0  0  0  0  0  0  0  0
   -1.4853    0.7562    0.0000 C   0  0  0  0  0  0  0  0  0  0  0  0
   -1.4853    1.5812    0.0000 C   0  0  0  0  0  0  0  0  0  0  0  0
   -2.1997    1.9938    0.0000 C   0  0  0  0  0  0  0  0  0  0  0  0
   -2.1997   -0.4812    0.0000 C   0  0  0  0  0  0  0  0  0  0  0  0
   -2.9142   -0.8938    0.0000 *   0  0  0  0  0  0  0  0  0  0  0  0
   -1.4853   -0.8938    0.0000 C   0  0  0  0  0  0  0  0  0  0  0  0
   -0.7708   -0.4812    0.0000 *   0  0  0  0  0  0  0  0  0  0  0  0
    1.4853   -0.3437    0.0000 C   0  0  0  0  0  0  0  0  0  0  0  0
    0.7708   -0.7563    0.0000 *   0  0  0  0  0  0  0  0  0  0  0  0
    2.1997   -0.7563    0.0000 C   0  0  0  0  0  0  0  0  0  0  0  0
    2.9142   -0.3437    0.0000 *   0  0  0  0  0  0  0  0  0  0  0  0
    2.1997   -1.5813    0.0000 C   0  0  0  0  0  0  0  0  0  0  0  0
    2.9142   -1.9938    0.0000 N   0  0  0  0  0  0  0  0  0  0  0  0
  1  2  2  0      
  2  3  1  0      
  3  4  2  0      
  4  5  1  0      
  5  6  2  0      
  6  1  1  0      
  3  7  1  0      
  7  8  1  0      
  7  9  1  0      
  9 10  1  0      
 11 12  1  0      
 11 13  1  0      
 13 14  1  0      
 13 15  1  0      
 15 16  3  0      
M  STY  3   1 COP   2 SRU   3 SRU
M  SLB  1   1   1
M  SST  1   1 RAN
M  SAL   1 15   1   2   3   4   5   6   7   8   9  10  11  12  13  14  15
M  SAL   1  1  16
M  SDI   1  4   -4.0313   -3.0354   -4.0313    2.5196
M  SDI   1  4    4.2187    2.5196    4.2187   -3.0354
M  SLB  1   2   2
M  SCN  3   1 HT    2 HT    3 HT
M  SAL   2  8   1   2   3   4   5   6   7   9
M  SBL   2  2   8  10
M  SMT   2 n
M  SDI   2  4   -2.7113   -1.1964   -2.7113   -0.2339
M  SDI   2  4   -1.0613   -0.2339   -1.0613   -1.1964
M  SLB  1   3   3
M  SAL   3  4  11  13  15  16
M  SBL   3  2  11  13
M  SMT   3 n
M  SDI   3  4    0.9737   -1.0589    0.9737   -0.0964
M  SDI   3  4    2.6237   -0.0964    2.6237   -1.0589
M  END
