poly(butyl_acrylate).mol
  ChemDraw01051714582D

 11 10  0  0  0  0  0  0  0  0999 V2000
   -1.7862   -1.4438    0.0000 *   0  0  0  0  0  0  0  0  0  0  0  0
   -1.0717   -1.0312    0.0000 C   0  0  0  0  0  0  0  0  0  0  0  0
   -0.3572   -1.4438    0.0000 C   0  0  0  0  0  0  0  0  0  0  0  0
    0.3572   -1.0312    0.0000 *   0  0  0  0  0  0  0  0  0  0  0  0
   -1.0717   -0.2062    0.0000 C   0  0  0  0  0  0  0  0  0  0  0  0
   -0.3572    0.2062    0.0000 O   0  0  0  0  0  0  0  0  0  0  0  0
   -1.7862    0.2062    0.0000 O   0  0  0  0  0  0  0  0  0  0  0  0
   -0.3572    1.0312    0.0000 C   0  0  0  0  0  0  0  0  0  0  0  0
    0.3572    1.4438    0.0000 C   0  0  0  0  0  0  0  0  0  0  0  0
    1.0717    1.0312    0.0000 C   0  0  0  0  0  0  0  0  0  0  0  0
    1.7862    1.4438    0.0000 C   0  0  0  0  0  0  0  0  0  0  0  0
  1  2  1  0      
  2  3  1  0      
  3  4  1  0      
  2  5  1  0      
  5  6  1  0      
  5  7  2  0      
  6  8  1  0      
  8  9  1  0      
  9 10  1  0      
 10 11  1  0      
M  STY  1   1 SRU
M  SLB  1   1   1
M  SCN  1   1 HT
M  SAL   1  9   2   3   5   6   7   8   9  10  11
M  SBL   1  2   3   1
M  SDI   1  4   -0.0171   -0.8939   -0.0171   -1.6364
M  SDI   1  4   -1.5021   -1.6364   -1.5021   -0.8939
M  END
