polypropylene.mol
  ChemDraw01051714512D

  5  4  0  0  0  0  0  0  0  0999 V2000
   -1.0716   -0.6187    0.0000 *   0  0  0  0  0  0  0  0  0  0  0  0
   -0.3572   -0.2062    0.0000 C   0  0  0  0  0  0  0  0  0  0  0  0
    0.3572   -0.6187    0.0000 C   0  0  0  0  0  0  0  0  0  0  0  0
    1.0716   -0.2062    0.0000 *   0  0  0  0  0  0  0  0  0  0  0  0
   -0.3572    0.6187    0.0000 C   0  0  0  0  0  0  0  0  0  0  0  0
  1  2  1  0      
  2  3  1  0      
  3  4  1  0      
  2  5  1  0      
M  STY  1   1 SRU
M  SLB  1   1   1
M  SCN  1   1 HT
M  SAL   1  3   2   3   5
M  SBL   1  2   1   3
M  SDI   1  4   -0.8413   -0.7288   -0.8413    0.0137
M  SDI   1  4    0.7812    0.0137    0.7812   -0.7288
M  END
