poly(4-tert-butylstyrene).mol
  ChemDraw01051715002D

 14 14  0  0  0  0  0  0  0  0999 V2000
   -1.0717   -2.2687    0.0000 *   0  0  0  0  0  0  0  0  0  0  0  0
   -0.3572   -1.8562    0.0000 C   0  0  0  0  0  0  0  0  0  0  0  0
    0.3572   -2.2687    0.0000 C   0  0  0  0  0  0  0  0  0  0  0  0
    1.0717   -1.8562    0.0000 *   0  0  0  0  0  0  0  0  0  0  0  0
   -0.3572   -1.0312    0.0000 C   0  0  0  0  0  0  0  0  0  0  0  0
    0.3572   -0.6188    0.0000 C   0  0  0  0  0  0  0  0  0  0  0  0
    0.3572    0.2062    0.0000 C   0  0  0  0  0  0  0  0  0  0  0  0
   -0.3572    0.6188    0.0000 C   0  0  0  0  0  0  0  0  0  0  0  0
   -1.0717    0.2062    0.0000 C   0  0  0  0  0  0  0  0  0  0  0  0
   -1.0717   -0.6188    0.0000 C   0  0  0  0  0  0  0  0  0  0  0  0
   -0.3572    1.4438    0.0000 C   0  0  0  0  0  0  0  0  0  0  0  0
   -1.0717    1.8562    0.0000 C   0  0  0  0  0  0  0  0  0  0  0  0
    0.3572    1.8563    0.0000 C   0  0  0  0  0  0  0  0  0  0  0  0
   -0.3572    2.2687    0.0000 C   0  0  0  0  0  0  0  0  0  0  0  0
  1  2  1  0      
  2  3  1  0      
  3  4  1  0      
  2  5  1  0      
  5  6  2  0      
  6  7  1  0      
  7  8  2  0      
  8  9  1  0      
  9 10  2  0      
 10  5  1  0      
  8 11  1  0      
 11 12  1  0      
 11 13  1  0      
 11 14  1  0      
M  STY  1   1 SRU
M  SLB  1   1   1
M  SCN  1   1 HT
M  SAL   1 12   2   3   5   6   7   8   9  10  11  12  13  14
M  SBL   1  2   1   3
M  SDI   1  4   -0.8138   -2.4418   -0.8138   -1.6993
M  SDI   1  4    0.8087   -1.6993    0.8087   -2.4418
M  END
