polystyrene_sulfonate.mol
  ChemDraw01051714492D

 14 14  0  0  0  0  0  0  0  0999 V2000
   -1.2289    1.8562    0.0000 *   0  0  0  0  0  0  0  0  0  0  0  0
   -0.5145    2.2687    0.0000 C   0  0  0  0  0  0  0  0  0  0  0  0
    0.2000    1.8562    0.0000 C   0  0  0  0  0  0  0  0  0  0  0  0
    0.9145    2.2687    0.0000 *   0  0  0  0  0  0  0  0  0  0  0  0
    0.2000    1.0312    0.0000 C   0  0  0  0  0  0  0  0  0  0  0  0
   -0.5145    0.6188    0.0000 C   0  0  0  0  0  0  0  0  0  0  0  0
   -0.5145   -0.2062    0.0000 C   0  0  0  0  0  0  0  0  0  0  0  0
    0.2000   -0.6188    0.0000 C   0  0  0  0  0  0  0  0  0  0  0  0
    0.9145   -0.2062    0.0000 C   0  0  0  0  0  0  0  0  0  0  0  0
    0.9145    0.6188    0.0000 C   0  0  0  0  0  0  0  0  0  0  0  0
    0.2000   -1.4438    0.0000 S   0  0  0  0  0  0  0  0  0  0  0  0
    1.2289   -1.4438    0.0000 O   0  0  0  0  0  0  0  0  0  0  0  0
   -0.6250   -1.4438    0.0000 O   0  0  0  0  0  0  0  0  0  0  0  0
    0.2000   -2.2687    0.0000 O   0  5  0  0  0  0  0  0  0  0  0  0
  1  2  1  0      
  2  3  1  0      
  3  4  1  0      
  3  5  1  0      
  5  6  2  0      
  6  7  1  0      
  7  8  2  0      
  8  9  1  0      
  9 10  2  0      
 10  5  1  0      
  8 11  1  0      
 11 12  2  0      
 11 13  2  0      
 11 14  1  0      
M  CHG  1  14  -1
M  STY  1   1 SRU
M  SLB  1   1   1
M  SCN  1   1 HT
M  SAL   1 12   2   3   5   6   7   8   9  10  11  12  13  14
M  SBL   1  2   1   3
M  SDI   1  4   -1.0073    1.6295   -1.0073    2.3995
M  SDI   1  4    0.6702    2.3995    0.6702    1.6295
M  END
