poly(2,2-bis(trifluoromethyl)-4,5-difluoro-1,3-dioxole).mol
  ChemDraw01051717042D

 17 17  0  0  0  0  0  0  0  0999 V2000
    0.3713    0.8551    0.0000 C   0  0  0  0  0  0  0  0  0  0  0  0
   -0.4537    0.8551    0.0000 C   0  0  0  0  0  0  0  0  0  0  0  0
   -0.7086    0.0705    0.0000 O   0  0  0  0  0  0  0  0  0  0  0  0
   -0.0412   -0.4145    0.0000 C   0  0  0  0  0  0  0  0  0  0  0  0
    0.6262    0.0705    0.0000 O   0  0  0  0  0  0  0  0  0  0  0  0
   -1.2506    0.6416    0.0000 *   0  0  0  0  0  0  0  0  0  0  0  0
    1.1682    0.6416    0.0000 *   0  0  0  0  0  0  0  0  0  0  0  0
    0.5848    1.6520    0.0000 F   0  0  0  0  0  0  0  0  0  0  0  0
   -0.6672    1.6520    0.0000 F   0  0  0  0  0  0  0  0  0  0  0  0
    0.6733   -0.8270    0.0000 C   0  0  0  0  0  0  0  0  0  0  0  0
   -0.7557   -0.8270    0.0000 C   0  0  0  0  0  0  0  0  0  0  0  0
    0.6733   -1.6520    0.0000 F   0  0  0  0  0  0  0  0  0  0  0  0
    1.3877   -1.2395    0.0000 F   0  0  0  0  0  0  0  0  0  0  0  0
    1.4702   -0.6134    0.0000 F   0  0  0  0  0  0  0  0  0  0  0  0
   -1.4702   -1.2395    0.0000 F   0  0  0  0  0  0  0  0  0  0  0  0
   -0.7557   -1.6520    0.0000 F   0  0  0  0  0  0  0  0  0  0  0  0
   -1.4702   -0.4145    0.0000 F   0  0  0  0  0  0  0  0  0  0  0  0
  1  2  1  0      
  2  3  1  0      
  3  4  1  0      
  4  5  1  0      
  5  1  1  0      
  2  6  1  0      
  1  7  1  0      
  1  8  1  0      
  2  9  1  0      
  4 10  1  0      
  4 11  1  0      
 10 12  1  0      
 10 13  1  0      
 10 14  1  0      
 11 15  1  0      
 11 16  1  0      
 11 17  1  0      
M  STY  1   1 SRU
M  SLB  1   1   1
M  SCN  1   1 HT
M  SAL   1 15   1   2   3   4   5   8   9  10  11  12  13  14  15  16  17
M  SBL   1  2   6   7
M  SDI   1  4   -0.9487    0.4151   -0.9487    1.1576
M  SDI   1  4    0.8113    1.1576    0.8113    0.4151
M  END
