poly(N-isopropylacrylamide).mol
  ChemDraw01051714562D

 10  9  0  0  0  0  0  0  0  0999 V2000
   -1.4289    1.0312    0.0000 *   0  0  0  0  0  0  0  0  0  0  0  0
   -0.7145    1.4438    0.0000 C   0  0  0  0  0  0  0  0  0  0  0  0
   -0.0000    1.0312    0.0000 C   0  0  0  0  0  0  0  0  0  0  0  0
    0.7145    1.4438    0.0000 *   0  0  0  0  0  0  0  0  0  0  0  0
   -0.0000    0.2062    0.0000 C   0  0  0  0  0  0  0  0  0  0  0  0
    0.7145   -0.2062    0.0000 N   0  0  0  0  0  0  0  0  0  0  0  0
   -0.7145   -0.2062    0.0000 O   0  0  0  0  0  0  0  0  0  0  0  0
    0.7145   -1.0312    0.0000 C   0  0  0  0  0  0  0  0  0  0  0  0
    1.4289   -1.4438    0.0000 C   0  0  0  0  0  0  0  0  0  0  0  0
   -0.0000   -1.4438    0.0000 C   0  0  0  0  0  0  0  0  0  0  0  0
  1  2  1  0      
  2  3  1  0      
  3  4  1  0      
  3  5  1  0      
  5  6  1  0      
  5  7  2  0      
  6  8  1  0      
  8  9  1  0      
  8 10  1  0      
M  STY  1   1 SRU
M  SLB  1   1   1
M  SCN  1   1 HT
M  SAL   1  8   2   3   5   6   7   8   9  10
M  SBL   1  2   1   3
M  SDI   1  4   -1.1177    0.9257   -1.1177    1.6132
M  SDI   1  4    0.3673    1.6132    0.3673    0.9257
M  END
