polybutadiene.mol
  ChemDraw01051714532D

  6  5  0  0  0  0  0  0  0  0999 V2000
   -1.7863   -0.2062    0.0000 *   0  0  0  0  0  0  0  0  0  0  0  0
   -1.0717    0.2062    0.0000 C   0  0  0  0  0  0  0  0  0  0  0  0
   -0.3572   -0.2062    0.0000 C   0  0  0  0  0  0  0  0  0  0  0  0
    0.3572    0.2062    0.0000 C   0  0  0  0  0  0  0  0  0  0  0  0
    1.0717   -0.2062    0.0000 C   0  0  0  0  0  0  0  0  0  0  0  0
    1.7863    0.2062    0.0000 *   0  0  0  0  0  0  0  0  0  0  0  0
  1  2  1  0      
  2  3  1  0      
  3  4  2  0      
  4  5  1  0      
  5  6  1  0      
M  STY  1   1 SRU
M  SLB  1   1   1
M  SCN  1   1 HT
M  SAL   1  4   2   3   4   5
M  SBL   1  2   5   1
M  SDI   1  4    1.4687    0.3598    1.4687   -0.4102
M  SDI   1  4   -1.5563   -0.4102   -1.5563    0.3598
M  END
