polyacrylamide.mol
  ChemDraw01051714532D

  7  6  0  0  0  0  0  0  0  0999 V2000
   -1.0717    0.4125    0.0000 *   0  0  0  0  0  0  0  0  0  0  0  0
   -0.3572    0.8250    0.0000 C   0  0  0  0  0  0  0  0  0  0  0  0
    0.3572    0.4125    0.0000 C   0  0  0  0  0  0  0  0  0  0  0  0
    1.0717    0.8250    0.0000 *   0  0  0  0  0  0  0  0  0  0  0  0
    0.3572   -0.4125    0.0000 C   0  0  0  0  0  0  0  0  0  0  0  0
   -0.3572   -0.8250    0.0000 N   0  0  0  0  0  0  0  0  0  0  0  0
    1.0717   -0.8250    0.0000 O   0  0  0  0  0  0  0  0  0  0  0  0
  1  2  1  0      
  2  3  1  0      
  3  4  1  0      
  3  5  1  0      
  5  6  1  0      
  5  7  2  0      
M  STY  1   1 SRU
M  SLB  1   1   1
M  SCN  1   1 HT
M  SAL   1  5   2   3   5   6   7
M  SBL   1  2   3   1
M  SDI   1  4    0.7802    1.0164    0.7802    0.2464
M  SDI   1  4   -0.8148    0.2464   -0.8148    1.0164
M  END
