poly(6-methyl-caprolactone).mol
  ChemDraw01051715002D

 11 10  0  0  0  0  0  0  0  0999 V2000
   -2.8578   -0.2062    0.0000 *   0  0  0  0  0  0  0  0  0  0  0  0
   -2.1434    0.2063    0.0000 O   0  0  0  0  0  0  0  0  0  0  0  0
   -1.4289   -0.2062    0.0000 C   0  0  0  0  0  0  0  0  0  0  0  0
   -0.7145    0.2063    0.0000 C   0  0  0  0  0  0  0  0  0  0  0  0
   -0.0000   -0.2062    0.0000 C   0  0  0  0  0  0  0  0  0  0  0  0
    0.7145    0.2063    0.0000 C   0  0  0  0  0  0  0  0  0  0  0  0
    1.4289   -0.2062    0.0000 C   0  0  0  0  0  0  0  0  0  0  0  0
    2.1434    0.2063    0.0000 C   0  0  0  0  0  0  0  0  0  0  0  0
    2.8578   -0.2062    0.0000 *   0  0  0  0  0  0  0  0  0  0  0  0
    2.1434    1.0313    0.0000 O   0  0  0  0  0  0  0  0  0  0  0  0
   -1.4289   -1.0313    0.0000 C   0  0  0  0  0  0  0  0  0  0  0  0
  1  2  1  0      
  2  3  1  0      
  3  4  1  0      
  4  5  1  0      
  5  6  1  0      
  6  7  1  0      
  7  8  1  0      
  8  9  1  0      
  8 10  2  0      
  3 11  1  0      
M  STY  1   1 SRU
M  SLB  1   1   1
M  SCN  1   1 HT
M  SAL   1  9   2   3   4   5   6   7   8  10  11
M  SBL   1  2   1   8
M  SDI   1  4   -2.6288   -0.5089   -2.6288    0.4811
M  SDI   1  4    2.4312    0.4811    2.4312   -0.5089
M  END
