poly(tert-butoxystyrene).mol
  ChemDraw01051714532D

 15 15  0  0  0  0  0  0  0  0999 V2000
   -1.0717    2.2687    0.0000 *   0  0  0  0  0  0  0  0  0  0  0  0
   -0.3572    2.6812    0.0000 C   0  0  0  0  0  0  0  0  0  0  0  0
    0.3572    2.2687    0.0000 C   0  0  0  0  0  0  0  0  0  0  0  0
    1.0717    2.6812    0.0000 *   0  0  0  0  0  0  0  0  0  0  0  0
    0.3572    1.4438    0.0000 C   0  0  0  0  0  0  0  0  0  0  0  0
   -0.3572    1.0312    0.0000 C   0  0  0  0  0  0  0  0  0  0  0  0
   -0.3572    0.2062    0.0000 C   0  0  0  0  0  0  0  0  0  0  0  0
    0.3572   -0.2062    0.0000 C   0  0  0  0  0  0  0  0  0  0  0  0
    1.0717    0.2062    0.0000 C   0  0  0  0  0  0  0  0  0  0  0  0
    1.0717    1.0312    0.0000 C   0  0  0  0  0  0  0  0  0  0  0  0
    0.3572   -1.0312    0.0000 O   0  0  0  0  0  0  0  0  0  0  0  0
    0.3572   -1.8562    0.0000 C   0  0  0  0  0  0  0  0  0  0  0  0
   -0.3572   -2.2687    0.0000 C   0  0  0  0  0  0  0  0  0  0  0  0
    1.0717   -2.2687    0.0000 C   0  0  0  0  0  0  0  0  0  0  0  0
    0.3572   -2.6812    0.0000 C   0  0  0  0  0  0  0  0  0  0  0  0
  1  2  1  0      
  2  3  1  0      
  3  4  1  0      
  3  5  1  0      
  5  6  2  0      
  6  7  1  0      
  7  8  2  0      
  8  9  1  0      
  9 10  2  0      
 10  5  1  0      
  8 11  1  0      
 11 12  1  0      
 12 13  1  0      
 12 14  1  0      
 12 15  1  0      
M  STY  1   1 SRU
M  SLB  1   1   1
M  SCN  1   1 HT
M  SAL   1 13   2   3   5   6   7   8   9  10  11  12  13  14  15
M  SBL   1  2   1   3
M  SDI   1  4   -0.8413    2.0866   -0.8413    2.8566
M  SDI   1  4    0.8362    2.8566    0.8362    2.0866
M  END
