polynorbornene.mol
  ChemDraw01051714512D

  9  9  0  0  0  0  0  0  0  0999 V2000
   -1.1270   -0.6348    0.0000 C   0  0  0  0  0  0  0  0  0  0  0  0
   -0.3020   -0.6348    0.0000 C   0  0  0  0  0  0  0  0  0  0  0  0
   -0.0470    0.1498    0.0000 C   0  0  0  0  0  0  0  0  0  0  0  0
   -0.7145    0.6348    0.0000 C   0  0  0  0  0  0  0  0  0  0  0  0
   -1.3819    0.1498    0.0000 C   0  0  0  0  0  0  0  0  0  0  0  0
   -2.0964    0.5623    0.0000 *   0  0  0  0  0  0  0  0  0  0  0  0
    0.6674    0.5623    0.0000 C   0  0  0  0  0  0  0  0  0  0  0  0
    1.3819    0.1498    0.0000 C   0  0  0  0  0  0  0  0  0  0  0  0
    2.0964    0.5623    0.0000 *   0  0  0  0  0  0  0  0  0  0  0  0
  1  2  1  0      
  2  3  1  0      
  3  4  1  0      
  4  5  1  0      
  5  1  1  0      
  5  6  1  0      
  3  7  1  0      
  7  8  2  0      
  8  9  1  0      
M  STY  1   1 SRU
M  SLB  1   1   1
M  SCN  1   1 HT
M  SAL   1  7   1   2   3   4   5   7   8
M  SBL   1  2   6   9
M  SDI   1  4   -1.7213   -0.2144   -1.7213    0.7481
M  SDI   1  4    1.6887    0.7481    1.6887   -0.2144
M  END
