poly(3-(2-ethylhexyl)thiophene).mol
  ChemDraw01051715022D

 15 15  0  0  0  0  0  0  0  0999 V2000
   -0.7391   -0.3178    0.0000 C   0  0  0  0  0  0  0  0  0  0  0  0
   -1.5641   -0.3178    0.0000 C   0  0  0  0  0  0  0  0  0  0  0  0
   -1.8191   -1.1023    0.0000 C   0  0  0  0  0  0  0  0  0  0  0  0
   -1.1516   -1.5872    0.0000 S   0  0  0  0  0  0  0  0  0  0  0  0
   -0.4842   -1.1023    0.0000 C   0  0  0  0  0  0  0  0  0  0  0  0
   -2.6037   -1.3572    0.0000 *   0  0  0  0  0  0  0  0  0  0  0  0
    0.3004   -1.3572    0.0000 *   0  0  0  0  0  0  0  0  0  0  0  0
   -0.2542    0.3497    0.0000 C   0  0  0  0  0  0  0  0  0  0  0  0
   -0.2542    1.1747    0.0000 C   0  0  0  0  0  0  0  0  0  0  0  0
   -0.9687    1.5872    0.0000 C   0  0  0  0  0  0  0  0  0  0  0  0
   -1.6831    1.1747    0.0000 C   0  0  0  0  0  0  0  0  0  0  0  0
    0.4603    1.5872    0.0000 C   0  0  0  0  0  0  0  0  0  0  0  0
    1.1747    1.1747    0.0000 C   0  0  0  0  0  0  0  0  0  0  0  0
    1.8892    1.5872    0.0000 C   0  0  0  0  0  0  0  0  0  0  0  0
    2.6037    1.1747    0.0000 C   0  0  0  0  0  0  0  0  0  0  0  0
  1  2  1  0      
  2  3  2  0      
  3  4  1  0      
  4  5  1  0      
  5  1  2  0      
  3  6  1  0      
  5  7  1  0      
  1  8  1  0      
  8  9  1  0      
  9 10  1  0      
 10 11  1  0      
  9 12  1  0      
 12 13  1  0      
 13 14  1  0      
 14 15  1  0      
M  STY  1   1 SRU
M  SLB  1   1   1
M  SCN  1   1 HT
M  SAL   1 13   1   2   3   4   5   8   9  10  11  12  13  14  15
M  SBL   1  2   7   6
M  SDI   1  4   -0.0177   -0.7866   -0.0177   -1.6391
M  SDI   1  4   -2.3002   -1.6391   -2.3002   -0.7866
M  END
