poly{2,5-bis[(4-methoxyphenyl)oxycarbonyl]styrene}.mol
  ChemDraw01051714532D

 32 34  0  0  0  0  0  0  0  0999 V2000
   -0.8245   -0.7697    0.0000 C   0  0  0  0  0  0  0  0  0  0  0  0
   -0.4120   -1.4842    0.0000 C   0  0  0  0  0  0  0  0  0  0  0  0
    0.4130   -1.4842    0.0000 C   0  0  0  0  0  0  0  0  0  0  0  0
    0.8255   -0.7697    0.0000 C   0  0  0  0  0  0  0  0  0  0  0  0
    0.4130   -0.0553    0.0000 C   0  0  0  0  0  0  0  0  0  0  0  0
   -0.4120   -0.0553    0.0000 C   0  0  0  0  0  0  0  0  0  0  0  0
    1.5400   -0.3572    0.0000 C   0  0  0  0  0  0  0  0  0  0  0  0
    2.2545   -0.7697    0.0000 O   0  0  0  0  0  0  0  0  0  0  0  0
    1.5400    0.4678    0.0000 O   0  0  0  0  0  0  0  0  0  0  0  0
    3.0795   -0.7697    0.0000 C   0  0  0  0  0  0  0  0  0  0  0  0
    3.4920   -1.4842    0.0000 C   0  0  0  0  0  0  0  0  0  0  0  0
    4.3170   -1.4842    0.0000 C   0  0  0  0  0  0  0  0  0  0  0  0
    4.7295   -0.7697    0.0000 C   0  0  0  0  0  0  0  0  0  0  0  0
    4.3170   -0.0553    0.0000 C   0  0  0  0  0  0  0  0  0  0  0  0
    3.4920   -0.0553    0.0000 C   0  0  0  0  0  0  0  0  0  0  0  0
    5.5545   -0.7697    0.0000 O   0  0  0  0  0  0  0  0  0  0  0  0
    6.1378   -1.3531    0.0000 C   0  0  0  0  0  0  0  0  0  0  0  0
   -1.5389   -0.3572    0.0000 C   0  0  0  0  0  0  0  0  0  0  0  0
   -2.2534   -0.7697    0.0000 O   0  0  0  0  0  0  0  0  0  0  0  0
   -1.5389    0.4678    0.0000 O   0  0  0  0  0  0  0  0  0  0  0  0
   -3.0784   -0.7697    0.0000 C   0  0  0  0  0  0  0  0  0  0  0  0
   -4.7295   -0.7147    0.0000 C   0  0  0  0  0  0  0  0  0  0  0  0
   -4.3170   -1.4292    0.0000 C   0  0  0  0  0  0  0  0  0  0  0  0
   -3.4920   -1.4292    0.0000 C   0  0  0  0  0  0  0  0  0  0  0  0
   -3.4920   -0.0003    0.0000 C   0  0  0  0  0  0  0  0  0  0  0  0
   -4.3170   -0.0003    0.0000 C   0  0  0  0  0  0  0  0  0  0  0  0
   -5.5545   -0.7147    0.0000 O   0  0  0  0  0  0  0  0  0  0  0  0
   -6.1378   -1.2981    0.0000 C   0  0  0  0  0  0  0  0  0  0  0  0
   -0.4120    0.7697    0.0000 C   0  0  0  0  0  0  0  0  0  0  0  0
   -0.8245    1.4842    0.0000 C   0  0  0  0  0  0  0  0  0  0  0  0
   -1.5670    1.1828    0.0000 *   0  0  0  0  0  0  0  0  0  0  0  0
    0.0005    1.4842    0.0000 *   0  0  0  0  0  0  0  0  0  0  0  0
  1  2  2  0      
  2  3  1  0      
  3  4  2  0      
  4  5  1  0      
  5  6  2  0      
  6  1  1  0      
  4  7  1  0      
  7  8  1  0      
  7  9  2  0      
  8 10  1  0      
 10 11  2  0      
 11 12  1  0      
 12 13  2  0      
 13 14  1  0      
 14 15  2  0      
 15 10  1  0      
 13 16  1  0      
 16 17  1  0      
  1 18  1  0      
 18 19  1  0      
 18 20  2  0      
 19 21  1  0      
 22 23  2  0      
 23 24  1  0      
 24 21  2  0      
 21 25  1  0      
 25 26  2  0      
 26 22  1  0      
 22 27  1  0      
 27 28  1  0      
  6 29  1  0      
 29 30  1  0      
 31 30  1  0      
 29 32  1  0      
M  STY  1   1 SRU
M  SLB  1   1   1
M  SCN  1   1 HT
M  SAL   1 15   1   2   3   4   5   6   7   8   9  10  11  12  13  14  15
M  SAL   1 15  16  17  18  19  20  21  22  23  24  25  26  27  28  29  30
M  SBL   1  2  34  33
M  SDI   1  4   -0.2200    1.6948   -0.2200    0.8423
M  SDI   1  4   -1.2925    0.8423   -1.2925    1.6948
M  END
