poly(4-hydroxystyrene).mol
  ChemDraw01051715002D

 11 11  0  0  0  0  0  0  0  0999 V2000
   -1.0717    1.4438    0.0000 *   0  0  0  0  0  0  0  0  0  0  0  0
   -0.3572    1.8562    0.0000 C   0  0  0  0  0  0  0  0  0  0  0  0
    0.3572    1.4438    0.0000 C   0  0  0  0  0  0  0  0  0  0  0  0
    1.0717    1.8562    0.0000 *   0  0  0  0  0  0  0  0  0  0  0  0
    0.3572    0.6188    0.0000 C   0  0  0  0  0  0  0  0  0  0  0  0
   -0.3572    0.2062    0.0000 C   0  0  0  0  0  0  0  0  0  0  0  0
   -0.3572   -0.6188    0.0000 C   0  0  0  0  0  0  0  0  0  0  0  0
    0.3572   -1.0312    0.0000 C   0  0  0  0  0  0  0  0  0  0  0  0
    1.0717   -0.6188    0.0000 C   0  0  0  0  0  0  0  0  0  0  0  0
    1.0717    0.2062    0.0000 C   0  0  0  0  0  0  0  0  0  0  0  0
    0.3572   -1.8562    0.0000 O   0  0  0  0  0  0  0  0  0  0  0  0
  1  2  1  0      
  2  3  1  0      
  3  4  1  0      
  3  5  1  0      
  5  6  2  0      
  6  7  1  0      
  7  8  2  0      
  8  9  1  0      
  9 10  2  0      
 10  5  1  0      
  8 11  1  0      
M  STY  1   1 SRU
M  SLB  1   1   1
M  SCN  1   1 HT
M  SAL   1  9   2   3   5   6   7   8   9  10  11
M  SBL   1  2   1   3
M  SDI   1  4   -0.8138    1.2508   -0.8138    2.0208
M  SDI   1  4    0.7537    2.0208    0.7537    1.2508
M  END
