poly(4-vinylbenzyltrimethylammonium_chloride).mol
  ChemDraw05121709532D

 16 15  0  0  0  0  0  0  0  0999 V2000
   -1.0717    0.0140    0.0000 C   0  0  0  0  0  0  0  0  0  0  0  0
   -1.0717   -0.8110    0.0000 C   0  0  0  0  0  0  0  0  0  0  0  0
   -0.3572   -1.2234    0.0000 C   0  0  0  0  0  0  0  0  0  0  0  0
    0.3572   -0.8110    0.0000 C   0  0  0  0  0  0  0  0  0  0  0  0
    0.3572    0.0140    0.0000 C   0  0  0  0  0  0  0  0  0  0  0  0
   -0.3572    0.4266    0.0000 C   0  0  0  0  0  0  0  0  0  0  0  0
   -0.3572   -2.0484    0.0000 C   0  0  0  0  0  0  0  0  0  0  0  0
   -1.0717   -2.4610    0.0000 *   0  0  0  0  0  0  0  0  0  0  0  0
    0.3572   -2.4610    0.0000 C   0  0  0  0  0  0  0  0  0  0  0  0
    1.0717   -2.0484    0.0000 *   0  0  0  0  0  0  0  0  0  0  0  0
   -0.3572    1.2516    0.0000 C   0  0  0  0  0  0  0  0  0  0  0  0
    0.3572    1.6641    0.0000 N   0  3  0  0  0  0  0  0  0  0  0  0
    0.1437    2.4610    0.0000 C   0  0  0  0  0  0  0  0  0  0  0  0
    1.0717    2.0766    0.0000 C   0  0  0  0  0  0  0  0  0  0  0  0
    1.0717    1.2516    0.0000 C   0  0  0  0  0  0  0  0  0  0  0  0
    0.5337    0.5674    0.0000 Cl  0  5  0  0  0  0  0  0  0  0  0  0
  1  2  2  0      
  2  3  1  0      
  3  4  2  0      
  4  5  1  0      
  5  6  2  0      
  6  1  1  0      
  3  7  1  0      
  7  8  1  0      
  7  9  1  0      
  9 10  1  0      
  6 11  1  0      
 11 12  1  0      
 12 13  1  0      
 12 14  1  0      
 12 15  1  0      
M  CHG  2  12   1  16  -1
M  STY  1   1 SRU
M  SLB  1   1   1
M  SCN  1   1 HT 
M  SAL   1 13   1   2   3   4   5   6   7   9  11  12  13  14  15
M  SBL   1  2   8  10
M  SMT   1 n
M  SDI   1  4   -0.8688   -2.7636   -0.8688   -1.8011
M  SDI   1  4    0.7812   -1.8011    0.7812   -2.7636
M  END
