polypropylene_glycol.mol
  ChemDraw01051714512D

  6  5  0  0  0  0  0  0  0  0999 V2000
   -1.4289    0.2062    0.0000 *   0  0  0  0  0  0  0  0  0  0  0  0
   -0.7145    0.6188    0.0000 C   0  0  0  0  0  0  0  0  0  0  0  0
   -0.0000    0.2062    0.0000 C   0  0  0  0  0  0  0  0  0  0  0  0
    0.7145    0.6188    0.0000 O   0  0  0  0  0  0  0  0  0  0  0  0
    1.4289    0.2062    0.0000 *   0  0  0  0  0  0  0  0  0  0  0  0
   -0.0000   -0.6188    0.0000 C   0  0  0  0  0  0  0  0  0  0  0  0
  1  2  1  0      
  2  3  1  0      
  3  4  1  0      
  4  5  1  0      
  3  6  1  0      
M  STY  1   1 SRU
M  SLB  1   1   1
M  SCN  1   1 HT
M  SAL   1  4   2   3   4   6
M  SBL   1  2   4   1
M  SDI   1  4    1.0562    0.7560    1.0562    0.0685
M  SDI   1  4   -1.1713    0.0685   -1.1713    0.7560
M  END
