poly(hydroxyethyl methacrylate).mol
  ChemDraw01051714562D

 11 10  0  0  0  0  0  0  0  0999 V2000
   -2.1433    0.2062    0.0000 *   0  0  0  0  0  0  0  0  0  0  0  0
   -1.4289    0.6187    0.0000 C   0  0  0  0  0  0  0  0  0  0  0  0
   -0.7144    0.2062    0.0000 C   0  0  0  0  0  0  0  0  0  0  0  0
    0.0000    0.6187    0.0000 *   0  0  0  0  0  0  0  0  0  0  0  0
   -0.7144   -0.6187    0.0000 C   0  0  0  0  0  0  0  0  0  0  0  0
    0.0000   -1.0312    0.0000 O   0  0  0  0  0  0  0  0  0  0  0  0
   -1.4289   -1.0312    0.0000 O   0  0  0  0  0  0  0  0  0  0  0  0
   -0.7144    1.0312    0.0000 C   0  0  0  0  0  0  0  0  0  0  0  0
    0.7144   -0.6187    0.0000 C   0  0  0  0  0  0  0  0  0  0  0  0
    1.4289   -1.0312    0.0000 C   0  0  0  0  0  0  0  0  0  0  0  0
    2.1433   -0.6187    0.0000 O   0  0  0  0  0  0  0  0  0  0  0  0
  1  2  1  0      
  2  3  1  0      
  3  4  1  0      
  3  5  1  0      
  5  6  1  0      
  5  7  2  0      
  3  8  1  0      
  6  9  1  0      
  9 10  1  0      
 10 11  1  0      
M  STY  1   1 SRU
M  SLB  1   1   1
M  SCN  1   1 HT
M  SAL   1  9   2   3   5   6   7   8   9  10  11
M  SBL   1  2   1   3
M  SDI   1  4   -1.8292   -0.0108   -1.8292    0.7867
M  SDI   1  4   -0.3442    0.7867   -0.3442   -0.0108
M  END
