poly(ferrocenylmethylethylsilane).mol
  ChemDraw01091718112D

 19 18  0  0  1  0  0  0  0  0999 V2000
    0.2895    1.2426    0.0000 C   0  0  0  0  0  0  0  0  0  0  0  0
   -0.1937    1.5493    0.0000 C   0  0  0  0  0  0  0  0  0  0  0  0
   -0.4902    1.1167    0.0000 C   0  0  0  0  0  0  0  0  0  0  0  0
    0.2949    0.8630    0.0000 C   0  0  0  0  0  0  0  0  0  0  0  0
    1.0683    1.1330    0.0000 C   0  0  0  0  0  0  0  0  0  0  0  0
    0.7685    1.5512    0.0000 C   0  0  0  0  0  0  0  0  0  0  0  0
   -0.4363   -0.5553    0.0000 C   0  0  0  0  0  0  0  0  0  0  0  0
   -0.1425   -0.9093    0.0000 C   0  0  0  0  0  0  0  0  0  0  0  0
    0.8497   -0.9063    0.0000 C   0  0  0  0  0  0  0  0  0  0  0  0
    1.1668   -0.5520    0.0000 C   0  0  0  0  0  0  0  0  0  0  0  0
    0.3764   -0.3368    0.0000 C   0  0  0  0  0  0  0  0  0  0  0  0
    0.3629   -0.6521    0.0000 C   0  0  0  0  0  0  0  0  0  0  0  0
    0.3383    0.2238    0.0000 Fe  0  0  0  0  0  0  0  0  0  0  0  0
    1.8652    0.9195    0.0000 U   0  0  0  0  0  0  0  0  0  0  0  0
   -1.1507   -0.1428    0.0000 Si  0  0  0  0  0  0  0  0  0  0  0  0
   -1.1507    0.6822    0.0000 C   0  0  0  0  0  0  0  0  0  0  0  0
   -1.8652   -0.5553    0.0000 U   0  0  0  0  0  0  0  0  0  0  0  0
   -1.1507   -0.9678    0.0000 C   0  0  0  0  0  0  0  0  0  0  0  0
   -0.5674   -1.5512    0.0000 C   0  0  0  0  0  0  0  0  0  0  0  0
  1 13  1  6      
  2  3  4  0      
  3  4  4  0      
  5  4  4  0      
  5  6  4  0      
  2  6  4  0      
  7  8  4  0      
  8  9  4  0      
 10  9  4  0      
 10 11  4  0      
  7 11  4  0      
 13 12  1  6      
  5 14  1  0      
  7 15  1  0      
 15 16  1  0      
 15 17  1  0      
 15 18  1  0      
 18 19  1  0      
M  STY  1   1 GEN
M  SLB  1   1   1
M  SAL   1 15   1   2   3   4   5   6   7   8   9  10  11  12  13  15  16
M  SAL   1  2  18  19
M  SBL   1  2  16  13
M  SDI   1  4   -1.6639   -0.8607   -1.6639    0.1843
M  SDI   1  4    1.4711    1.6143    1.4711    0.5693
M  END
