poly(diisoamyl_itaconate).mol
  ChemDraw01051714582D

 21 20  0  0  0  0  0  0  0  0999 V2000
   -2.8578    0.0000    0.0000 *   0  0  0  0  0  0  0  0  0  0  0  0
   -2.1433    0.4125    0.0000 C   0  0  0  0  0  0  0  0  0  0  0  0
   -1.4289    0.0000    0.0000 C   0  0  0  0  0  0  0  0  0  0  0  0
   -0.7145    0.4125    0.0000 *   0  0  0  0  0  0  0  0  0  0  0  0
   -1.4289   -0.8250    0.0000 C   0  0  0  0  0  0  0  0  0  0  0  0
   -1.4289    0.8250    0.0000 C   0  0  0  0  0  0  0  0  0  0  0  0
   -0.7145   -1.2375    0.0000 O   0  0  0  0  0  0  0  0  0  0  0  0
   -2.1433   -1.2375    0.0000 O   0  0  0  0  0  0  0  0  0  0  0  0
   -0.7145   -2.0624    0.0000 C   0  0  0  0  0  0  0  0  0  0  0  0
   -0.0000   -2.4749    0.0000 C   0  0  0  0  0  0  0  0  0  0  0  0
    0.7145   -2.0624    0.0000 C   0  0  0  0  0  0  0  0  0  0  0  0
    1.4289   -2.4749    0.0000 C   0  0  0  0  0  0  0  0  0  0  0  0
    2.1433   -2.0624    0.0000 C   0  0  0  0  0  0  0  0  0  0  0  0
   -0.7145    1.2375    0.0000 C   0  0  0  0  0  0  0  0  0  0  0  0
   -0.7145    2.0624    0.0000 O   0  0  0  0  0  0  0  0  0  0  0  0
   -0.0000    0.8250    0.0000 O   0  0  0  0  0  0  0  0  0  0  0  0
   -0.0000    2.4749    0.0000 C   0  0  0  0  0  0  0  0  0  0  0  0
    0.7145    2.0624    0.0000 C   0  0  0  0  0  0  0  0  0  0  0  0
    1.4289    2.4749    0.0000 C   0  0  0  0  0  0  0  0  0  0  0  0
    2.1433    2.0624    0.0000 C   0  0  0  0  0  0  0  0  0  0  0  0
    2.8578    2.4749    0.0000 C   0  0  0  0  0  0  0  0  0  0  0  0
  1  2  1  0      
  2  3  1  0      
  3  4  1  0      
  3  5  1  0      
  3  6  1  0      
  5  7  1  0      
  5  8  2  0      
  7  9  1  0      
  9 10  1  0      
 10 11  1  0      
 11 12  1  0      
 12 13  1  0      
  6 14  1  0      
 14 15  1  0      
 14 16  2  0      
 15 17  1  0      
 17 18  1  0      
 18 19  1  0      
 19 20  1  0      
 20 21  1  0      
M  STY  1   1 SRU
M  SLB  1   1   1
M  SCN  1   1 HT
M  SAL   1 15   2   3   5   6   7   8   9  10  11  12  13  14  15  16  17
M  SAL   1  4  18  19  20  21
M  SBL   1  2   1   3
M  SDI   1  4   -2.6027   -0.1375   -2.6027    0.5500
M  SDI   1  4   -1.0352    0.5500   -1.0352   -0.1375
M  END
