poly(hexafluoroisopropylidene diphthalic anhydride-alt-2,3,5,6-tetramethyl-1,4-diaminobenzene).mol
  ChemDraw01051717132D

 43 47  0  0  0  0  0  0  0  0999 V2000
   -3.3809   -0.7970    0.0000 C   0  0  0  0  0  0  0  0  0  0  0  0
   -3.3809    0.0280    0.0000 C   0  0  0  0  0  0  0  0  0  0  0  0
   -4.1655    0.2829    0.0000 C   0  0  0  0  0  0  0  0  0  0  0  0
   -4.6505   -0.3845    0.0000 N   0  0  0  0  0  0  0  0  0  0  0  0
   -4.1655   -1.0520    0.0000 C   0  0  0  0  0  0  0  0  0  0  0  0
   -2.6664   -1.2095    0.0000 C   0  0  0  0  0  0  0  0  0  0  0  0
   -1.9520   -0.7970    0.0000 C   0  0  0  0  0  0  0  0  0  0  0  0
   -1.9520    0.0280    0.0000 C   0  0  0  0  0  0  0  0  0  0  0  0
   -2.6664    0.4405    0.0000 C   0  0  0  0  0  0  0  0  0  0  0  0
   -1.2375    0.4405    0.0000 C   0  0  0  0  0  0  0  0  0  0  0  0
   -5.4755   -0.3845    0.0000 *   0  0  0  0  0  0  0  0  0  0  0  0
   -4.3791    1.0798    0.0000 O   0  0  0  0  0  0  0  0  0  0  0  0
   -0.5230    0.0280    0.0000 C   0  0  0  0  0  0  0  0  0  0  0  0
   -0.5230   -0.7970    0.0000 C   0  0  0  0  0  0  0  0  0  0  0  0
    0.1914   -1.2095    0.0000 C   0  0  0  0  0  0  0  0  0  0  0  0
    0.9059   -0.7970    0.0000 C   0  0  0  0  0  0  0  0  0  0  0  0
    0.9059    0.0280    0.0000 C   0  0  0  0  0  0  0  0  0  0  0  0
    0.1914    0.4405    0.0000 C   0  0  0  0  0  0  0  0  0  0  0  0
    1.6905   -1.0520    0.0000 C   0  0  0  0  0  0  0  0  0  0  0  0
    2.1755   -0.3845    0.0000 N   0  0  0  0  0  0  0  0  0  0  0  0
    1.6905    0.2829    0.0000 C   0  0  0  0  0  0  0  0  0  0  0  0
    1.9041    1.0798    0.0000 O   0  0  0  0  0  0  0  0  0  0  0  0
    1.9041   -1.8488    0.0000 O   0  0  0  0  0  0  0  0  0  0  0  0
   -4.3791   -1.8488    0.0000 O   0  0  0  0  0  0  0  0  0  0  0  0
    3.0005   -0.3845    0.0000 C   0  0  0  0  0  0  0  0  0  0  0  0
    3.4130   -1.0990    0.0000 C   0  0  0  0  0  0  0  0  0  0  0  0
    4.2380   -1.0990    0.0000 C   0  0  0  0  0  0  0  0  0  0  0  0
    4.6505   -0.3845    0.0000 C   0  0  0  0  0  0  0  0  0  0  0  0
    4.2380    0.3300    0.0000 C   0  0  0  0  0  0  0  0  0  0  0  0
    3.4130    0.3300    0.0000 C   0  0  0  0  0  0  0  0  0  0  0  0
   -0.6541    1.0238    0.0000 C   0  0  0  0  0  0  0  0  0  0  0  0
   -1.8209    1.0238    0.0000 C   0  0  0  0  0  0  0  0  0  0  0  0
   -0.0708    1.6072    0.0000 F   0  0  0  0  0  0  0  0  0  0  0  0
   -0.6541    1.8488    0.0000 F   0  0  0  0  0  0  0  0  0  0  0  0
    0.1709    1.0238    0.0000 F   0  0  0  0  0  0  0  0  0  0  0  0
   -2.4042    1.6072    0.0000 F   0  0  0  0  0  0  0  0  0  0  0  0
   -1.8209    1.8488    0.0000 F   0  0  0  0  0  0  0  0  0  0  0  0
   -2.6459    1.0238    0.0000 F   0  0  0  0  0  0  0  0  0  0  0  0
    3.0005    1.0444    0.0000 C   0  0  0  0  0  0  0  0  0  0  0  0
    4.6505    1.0444    0.0000 C   0  0  0  0  0  0  0  0  0  0  0  0
    3.0005   -1.8135    0.0000 C   0  0  0  0  0  0  0  0  0  0  0  0
    4.6505   -1.8135    0.0000 C   0  0  0  0  0  0  0  0  0  0  0  0
    5.4755   -0.3845    0.0000 *   0  0  0  0  0  0  0  0  0  0  0  0
  1  2  2  0      
  2  3  1  0      
  3  4  1  0      
  4  5  1  0      
  5  1  1  0      
  1  6  1  0      
  6  7  2  0      
  7  8  1  0      
  8  9  2  0      
  9  2  1  0      
  8 10  1  0      
  4 11  1  0      
  3 12  2  0      
 10 13  1  0      
 13 14  2  0      
 14 15  1  0      
 15 16  2  0      
 16 17  1  0      
 17 18  2  0      
 18 13  1  0      
 16 19  1  0      
 19 20  1  0      
 20 21  1  0      
 21 17  1  0      
 21 22  2  0      
 19 23  2  0      
  5 24  2  0      
 20 25  1  0      
 25 26  2  0      
 26 27  1  0      
 27 28  2  0      
 28 29  1  0      
 29 30  2  0      
 30 25  1  0      
 10 31  1  0      
 10 32  1  0      
 31 33  1  0      
 31 34  1  0      
 31 35  1  0      
 32 36  1  0      
 32 37  1  0      
 32 38  1  0      
 30 39  1  0      
 29 40  1  0      
 26 41  1  0      
 27 42  1  0      
 28 43  1  0      
M  STY  1   1 SRU
M  SLB  1   1   1
M  SCN  1   1 HT
M  SAL   1 15   1   2   3   4   5   6   7   8   9  10  12  13  14  15  16
M  SAL   1 15  17  18  19  20  21  22  23  24  25  26  27  28  29  30  31
M  SAL   1 11  32  33  34  35  36  37  38  39  40  41  42
M  SBL   1  2  12  47
M  SDI   1  4   -5.1409   -0.9620   -5.1409    0.1380
M  SDI   1  4    4.9791    0.1380    4.9791   -0.9620
M  END
