polyethylene_glycol.mol
  ChemDraw01051714532D

  5  4  0  0  0  0  0  0  0  0999 V2000
   -1.4289   -0.2062    0.0000 *   0  0  0  0  0  0  0  0  0  0  0  0
   -0.7145    0.2062    0.0000 O   0  0  0  0  0  0  0  0  0  0  0  0
   -0.0000   -0.2062    0.0000 C   0  0  0  0  0  0  0  0  0  0  0  0
    0.7145    0.2062    0.0000 C   0  0  0  0  0  0  0  0  0  0  0  0
    1.4289   -0.2062    0.0000 *   0  0  0  0  0  0  0  0  0  0  0  0
  1  2  1  0      
  2  3  1  0      
  3  4  1  0      
  4  5  1  0      
M  STY  1   1 SRU
M  SLB  1   1   1
M  SCN  1   1 HT
M  SAL   1  3   2   3   4
M  SBL   1  2   4   1
M  SDI   1  4    1.0012    0.5005    1.0012   -0.2695
M  SDI   1  4   -1.1988   -0.2695   -1.1988    0.5005
M  END
