poly(octyl_acrylate).mol
  ChemDraw01051714532D

 15 14  0  0  0  0  0  0  0  0999 V2000
   -3.5721    1.0311    0.0000 *   0  0  0  0  0  0  0  0  0  0  0  0
   -2.8576    1.4437    0.0000 C   0  0  0  0  0  0  0  0  0  0  0  0
   -2.1432    1.0311    0.0000 C   0  0  0  0  0  0  0  0  0  0  0  0
   -1.4288    1.4437    0.0000 *   0  0  0  0  0  0  0  0  0  0  0  0
   -2.1432    0.2062    0.0000 C   0  0  0  0  0  0  0  0  0  0  0  0
   -1.4288   -0.2062    0.0000 O   0  0  0  0  0  0  0  0  0  0  0  0
   -2.8576   -0.2062    0.0000 O   0  0  0  0  0  0  0  0  0  0  0  0
   -1.4288   -1.0311    0.0000 C   0  0  0  0  0  0  0  0  0  0  0  0
   -0.7144   -1.4437    0.0000 C   0  0  0  0  0  0  0  0  0  0  0  0
    0.0000   -1.0311    0.0000 C   0  0  0  0  0  0  0  0  0  0  0  0
    0.7144   -1.4437    0.0000 C   0  0  0  0  0  0  0  0  0  0  0  0
    1.4288   -1.0311    0.0000 C   0  0  0  0  0  0  0  0  0  0  0  0
    2.1432   -1.4437    0.0000 C   0  0  0  0  0  0  0  0  0  0  0  0
    2.8576   -1.0311    0.0000 C   0  0  0  0  0  0  0  0  0  0  0  0
    3.5721   -1.4437    0.0000 C   0  0  0  0  0  0  0  0  0  0  0  0
  1  2  1  0      
  2  3  1  0      
  3  4  1  0      
  3  5  1  0      
  5  6  1  0      
  5  7  2  0      
  6  8  1  0      
  8  9  1  0      
  9 10  1  0      
 10 11  1  0      
 11 12  1  0      
 12 13  1  0      
 13 14  1  0      
 14 15  1  0      
M  STY  1   1 SRU
M  SLB  1   1   1
M  SCN  1   1 HT
M  SAL   1 13   2   3   5   6   7   8   9  10  11  12  13  14  15
M  SBL   1  2   3   1
M  SDI   1  4   -1.6952    1.6662   -1.6952    0.8962
M  SDI   1  4   -3.3727    0.8962   -3.3727    1.6662
M  END
