poly(3-methylthiophene).mol
  ChemDraw01051715022D

  8  8  0  0  0  0  0  0  0  0999 V2000
    0.4125    0.3010    0.0000 C   0  0  0  0  0  0  0  0  0  0  0  0
   -0.4125    0.3010    0.0000 C   0  0  0  0  0  0  0  0  0  0  0  0
   -0.6674   -0.4836    0.0000 C   0  0  0  0  0  0  0  0  0  0  0  0
    0.0000   -0.9685    0.0000 S   0  0  0  0  0  0  0  0  0  0  0  0
    0.6674   -0.4836    0.0000 C   0  0  0  0  0  0  0  0  0  0  0  0
   -1.4521   -0.7385    0.0000 *   0  0  0  0  0  0  0  0  0  0  0  0
    1.4521   -0.7385    0.0000 *   0  0  0  0  0  0  0  0  0  0  0  0
    0.8974    0.9685    0.0000 C   0  0  0  0  0  0  0  0  0  0  0  0
  1  2  1  0      
  2  3  2  0      
  3  4  1  0      
  4  5  1  0      
  5  1  2  0      
  3  6  1  0      
  5  7  1  0      
  1  8  1  0      
M  STY  1   1 SRU
M  SLB  1   1   1
M  SCN  1   1 HT
M  SAL   1  6   1   2   3   4   5   8
M  SBL   1  2   6   7
M  SDI   1  4   -1.1163   -0.9830   -1.1163   -0.1580
M  SDI   1  4    1.0562   -0.1580    1.0562   -0.9830
M  END
