polysulfone.mol
  ChemDraw01051714482D

 34 37  0  0  0  0  0  0  0  0999 V2000
   -4.8395   -0.9207    0.0000 C   0  0  0  0  0  0  0  0  0  0  0  0
   -4.0145   -0.9207    0.0000 C   0  0  0  0  0  0  0  0  0  0  0  0
   -3.6020   -0.2062    0.0000 C   0  0  0  0  0  0  0  0  0  0  0  0
   -4.0145    0.5082    0.0000 C   0  0  0  0  0  0  0  0  0  0  0  0
   -4.8395    0.5082    0.0000 C   0  0  0  0  0  0  0  0  0  0  0  0
   -5.2520   -0.2062    0.0000 C   0  0  0  0  0  0  0  0  0  0  0  0
   -6.0770   -0.2062    0.0000 O   0  0  0  0  0  0  0  0  0  0  0  0
   -6.9020   -0.2062    0.0000 *   0  0  0  0  0  0  0  0  0  0  0  0
   -2.8875    0.2062    0.0000 C   0  0  0  0  0  0  0  0  0  0  0  0
   -2.1730   -0.2062    0.0000 C   0  0  0  0  0  0  0  0  0  0  0  0
   -2.8875    1.0312    0.0000 C   0  0  0  0  0  0  0  0  0  0  0  0
   -2.8875   -0.6188    0.0000 C   0  0  0  0  0  0  0  0  0  0  0  0
   -1.7605   -0.9207    0.0000 C   0  0  0  0  0  0  0  0  0  0  0  0
   -0.9355   -0.9207    0.0000 C   0  0  0  0  0  0  0  0  0  0  0  0
   -0.5230   -0.2062    0.0000 C   0  0  0  0  0  0  0  0  0  0  0  0
   -0.9355    0.5082    0.0000 C   0  0  0  0  0  0  0  0  0  0  0  0
   -1.7605    0.5082    0.0000 C   0  0  0  0  0  0  0  0  0  0  0  0
    0.3020   -0.2062    0.0000 O   0  0  0  0  0  0  0  0  0  0  0  0
    1.1270   -0.2062    0.0000 C   0  0  0  0  0  0  0  0  0  0  0  0
    1.5395   -0.9207    0.0000 C   0  0  0  0  0  0  0  0  0  0  0  0
    2.3645   -0.9207    0.0000 C   0  0  0  0  0  0  0  0  0  0  0  0
    2.7770   -0.2062    0.0000 C   0  0  0  0  0  0  0  0  0  0  0  0
    2.3645    0.5082    0.0000 C   0  0  0  0  0  0  0  0  0  0  0  0
    1.5395    0.5082    0.0000 C   0  0  0  0  0  0  0  0  0  0  0  0
    3.6020   -0.2062    0.0000 S   0  0  0  0  0  0  0  0  0  0  0  0
    3.6020    0.6188    0.0000 O   0  0  0  0  0  0  0  0  0  0  0  0
    3.6020   -1.0312    0.0000 O   0  0  0  0  0  0  0  0  0  0  0  0
    4.4270   -0.2062    0.0000 C   0  0  0  0  0  0  0  0  0  0  0  0
    4.8395   -0.9207    0.0000 C   0  0  0  0  0  0  0  0  0  0  0  0
    5.6645   -0.9207    0.0000 C   0  0  0  0  0  0  0  0  0  0  0  0
    6.0770   -0.2062    0.0000 C   0  0  0  0  0  0  0  0  0  0  0  0
    5.6645    0.5082    0.0000 C   0  0  0  0  0  0  0  0  0  0  0  0
    4.8395    0.5082    0.0000 C   0  0  0  0  0  0  0  0  0  0  0  0
    6.9020   -0.2062    0.0000 *   0  0  0  0  0  0  0  0  0  0  0  0
  1  2  2  0      
  2  3  1  0      
  3  4  2  0      
  4  5  1  0      
  5  6  2  0      
  6  1  1  0      
  6  7  1  0      
  7  8  1  0      
  3  9  1  0      
  9 10  1  0      
  9 11  1  0      
  9 12  1  0      
 10 13  1  0      
 13 14  2  0      
 14 15  1  0      
 15 16  2  0      
 16 17  1  0      
 17 10  2  0      
 15 18  1  0      
 18 19  1  0      
 19 20  1  0      
 20 21  2  0      
 21 22  1  0      
 22 23  2  0      
 23 24  1  0      
 24 19  2  0      
 22 25  1  0      
 25 26  2  0      
 25 27  2  0      
 25 28  1  0      
 28 29  1  0      
 29 30  2  0      
 30 31  1  0      
 31 32  2  0      
 32 33  1  0      
 33 28  2  0      
 31 34  1  0      
M  STY  1   1 SRU
M  SLB  1   1   1
M  SCN  1   1 HT
M  SAL   1 15   1   2   3   4   5   6   7   9  10  11  12  13  14  15  16
M  SAL   1 15  17  18  19  20  21  22  23  24  25  26  27  28  29  30  31
M  SAL   1  2  32  33
M  SBL   1  2  37   8
M  SDI   1  4    6.4187    0.2887    6.4187   -0.7563
M  SDI   1  4   -6.5613   -0.7563   -6.5613    0.2887
M  END
