poly(4,5-difluoro-2,2-bis(trifluoromethyl)-1,3-dioxole).mol
  ChemDraw01051715002D

 17 17  0  0  0  0  0  0  0  0999 V2000
   -0.4140    0.9104    0.0000 C   0  0  0  0  0  0  0  0  0  0  0  0
    0.4110    0.9104    0.0000 C   0  0  0  0  0  0  0  0  0  0  0  0
   -0.6275    1.7073    0.0000 F   0  0  0  0  0  0  0  0  0  0  0  0
    0.6246    1.7073    0.0000 F   0  0  0  0  0  0  0  0  0  0  0  0
    0.6246    0.1135    0.0000 O   0  0  0  0  0  0  0  0  0  0  0  0
   -0.6275    0.1135    0.0000 O   0  0  0  0  0  0  0  0  0  0  0  0
    0.0412   -0.4698    0.0000 C   0  0  0  0  0  0  0  0  0  0  0  0
    0.7557   -0.8823    0.0000 C   0  0  0  0  0  0  0  0  0  0  0  0
   -0.6733   -0.8823    0.0000 C   0  0  0  0  0  0  0  0  0  0  0  0
    1.4702   -0.4698    0.0000 F   0  0  0  0  0  0  0  0  0  0  0  0
    1.4702   -1.2948    0.0000 F   0  0  0  0  0  0  0  0  0  0  0  0
    0.7557   -1.7073    0.0000 F   0  0  0  0  0  0  0  0  0  0  0  0
   -0.6733   -1.7073    0.0000 F   0  0  0  0  0  0  0  0  0  0  0  0
   -1.3877   -1.2948    0.0000 F   0  0  0  0  0  0  0  0  0  0  0  0
   -1.4702   -0.6688    0.0000 F   0  0  0  0  0  0  0  0  0  0  0  0
    1.2079    0.6969    0.0000 *   0  0  0  0  0  0  0  0  0  0  0  0
   -1.2108    0.6969    0.0000 *   0  0  0  0  0  0  0  0  0  0  0  0
  1  2  1  0      
  1  3  1  0      
  2  4  1  0      
  2  5  1  0      
  1  6  1  0      
  5  7  1  0      
  6  7  1  0      
  7  8  1  0      
  7  9  1  0      
  8 10  1  0      
  8 11  1  0      
  8 12  1  0      
  9 13  1  0      
  9 14  1  0      
  9 15  1  0      
  2 16  1  0      
  1 17  1  0      
M  STY  1   1 SRU
M  SLB  1   1   1
M  SCN  1   1 HT
M  SAL   1 15   1   2   3   4   5   6   7   8   9  10  11  12  13  14  15
M  SBL   1  2  17  16
M  SDI   1  4   -1.0019    0.3186   -1.0019    1.2261
M  SDI   1  4    0.8956    1.2261    0.8956    0.3186
M  END
