poly(3-hexylthiophene).mol
  ChemDraw01051715022D

 13 13  0  0  0  0  0  0  0  0999 V2000
   -0.9601   -0.4135    0.0000 C   0  0  0  0  0  0  0  0  0  0  0  0
   -1.7851   -0.4135    0.0000 C   0  0  0  0  0  0  0  0  0  0  0  0
   -2.0402   -1.1980    0.0000 C   0  0  0  0  0  0  0  0  0  0  0  0
   -1.3726   -1.6829    0.0000 S   0  0  0  0  0  0  0  0  0  0  0  0
   -0.7052   -1.1980    0.0000 C   0  0  0  0  0  0  0  0  0  0  0  0
   -2.8248   -1.4529    0.0000 *   0  0  0  0  0  0  0  0  0  0  0  0
    0.0793   -1.4529    0.0000 *   0  0  0  0  0  0  0  0  0  0  0  0
   -0.4753    0.2540    0.0000 C   0  0  0  0  0  0  0  0  0  0  0  0
    0.3497    0.2540    0.0000 C   0  0  0  0  0  0  0  0  0  0  0  0
    0.7622    0.9686    0.0000 C   0  0  0  0  0  0  0  0  0  0  0  0
    1.5872    0.9686    0.0000 C   0  0  0  0  0  0  0  0  0  0  0  0
    1.9998    1.6829    0.0000 C   0  0  0  0  0  0  0  0  0  0  0  0
    2.8248    1.6829    0.0000 C   0  0  0  0  0  0  0  0  0  0  0  0
  1  2  1  0      
  2  3  2  0      
  3  4  1  0      
  4  5  1  0      
  5  1  2  0      
  3  6  1  0      
  5  7  1  0      
  1  8  1  0      
  8  9  1  0      
  9 10  1  0      
 10 11  1  0      
 11 12  1  0      
 12 13  1  0      
M  STY  1   1 SRU
M  SLB  1   1   1
M  SCN  1   1 HT
M  SAL   1 11   1   2   3   4   5   8   9  10  11  12  13
M  SBL   1  2   7   6
M  SDI   1  4   -0.3236   -0.8702   -0.3236   -1.6677
M  SDI   1  4   -2.5236   -1.6677   -2.5236   -0.8702
M  END
