polyvinylidene_fluoride.mol
  ChemDraw01051714472D

  6  5  0  0  0  0  0  0  0  0999 V2000
   -1.0717    0.0000    0.0000 *   0  0  0  0  0  0  0  0  0  0  0  0
   -0.3572    0.4125    0.0000 C   0  0  0  0  0  0  0  0  0  0  0  0
    0.3572    0.0000    0.0000 C   0  0  0  0  0  0  0  0  0  0  0  0
    1.0717    0.4125    0.0000 *   0  0  0  0  0  0  0  0  0  0  0  0
    0.3572    0.8250    0.0000 F   0  0  0  0  0  0  0  0  0  0  0  0
    0.3572   -0.8250    0.0000 F   0  0  0  0  0  0  0  0  0  0  0  0
  1  2  1  0      
  2  3  1  0      
  3  4  1  0      
  3  5  1  0      
  3  6  1  0      
M  STY  1   1 SRU
M  SLB  1   1   1
M  SCN  1   1 HT
M  SAL   1  4   2   3   5   6
M  SBL   1  2   3   1
M  SDI   1  4    0.7400    0.5983    0.7400   -0.1442
M  SDI   1  4   -0.8550   -0.1442   -0.8550    0.5983
M  END
