poly(allylamine_hydrochloride).mol
  ChemDraw01051714582D

  7  5  0  0  0  0  0  0  0  0999 V2000
   -1.5675    0.8525    0.0000 *   0  0  0  0  0  0  0  0  0  0  0  0
   -0.8530    1.2650    0.0000 C   0  0  0  0  0  0  0  0  0  0  0  0
   -0.1386    0.8525    0.0000 C   0  0  0  0  0  0  0  0  0  0  0  0
    0.5759    1.2650    0.0000 *   0  0  0  0  0  0  0  0  0  0  0  0
   -0.1386    0.0275    0.0000 C   0  0  0  0  0  0  0  0  0  0  0  0
    0.5759   -0.3850    0.0000 N   0  0  0  0  0  0  0  0  0  0  0  0
    1.5675   -1.2650    0.0000 Cl  0  0  0  0  0  0  0  0  0  0  0  0
  1  2  1  0      
  2  3  1  0      
  3  4  1  0      
  3  5  1  0      
  5  6  1  0      
M  STY  1   1 SRU
M  SLB  1   1   1
M  SCN  1   1 HT
M  SAL   1  4   2   3   5   6
M  SBL   1  2   3   1
M  SDI   1  4    0.2599    1.4715    0.2599    0.5915
M  SDI   1  4   -1.3626    0.5915   -1.3626    1.4715
M  END
