poly(ethylenepropylene).mol
  ChemDraw01051714562D

  7  6  0  0  0  0  0  0  0  0999 V2000
   -1.7860   -0.6188    0.0000 *   0  0  0  0  0  0  0  0  0  0  0  0
   -1.0716   -0.2062    0.0000 C   0  0  0  0  0  0  0  0  0  0  0  0
   -0.3573   -0.6188    0.0000 C   0  0  0  0  0  0  0  0  0  0  0  0
    0.3571   -0.2062    0.0000 C   0  0  0  0  0  0  0  0  0  0  0  0
    1.0716   -0.6187    0.0000 C   0  0  0  0  0  0  0  0  0  0  0  0
    1.7860   -0.2061    0.0000 *   0  0  0  0  0  0  0  0  0  0  0  0
    0.3571    0.6188    0.0000 C   0  0  0  0  0  0  0  0  0  0  0  0
  1  2  1  0      
  2  3  1  0      
  3  4  1  0      
  4  5  1  0      
  5  6  1  0      
  4  7  1  0      
M  STY  1   1 SRU
M  SLB  1   1   1
M  SCN  1   1 HT
M  SAL   1  5   2   3   4   5   7
M  SBL   1  2   5   1
M  SDI   1  4    1.4687    0.0469    1.4687   -0.8056
M  SDI   1  4   -1.5288   -0.8056   -1.5288    0.0469
M  END
