poly(cyclohexylethylene).mol
  ChemDraw01051714582D

 10 10  0  0  0  0  0  0  0  0999 V2000
   -1.0717    1.2688    0.0000 *   0  0  0  0  0  0  0  0  0  0  0  0
   -0.3572    1.6812    0.0000 C   0  0  0  0  0  0  0  0  0  0  0  0
    0.3572    1.2688    0.0000 C   0  0  0  0  0  0  0  0  0  0  0  0
    1.0717    1.6812    0.0000 *   0  0  0  0  0  0  0  0  0  0  0  0
    0.3572    0.4438    0.0000 C   0  0  0  0  0  0  0  0  0  0  0  0
   -0.2261   -0.1396    0.0000 C   0  0  0  0  0  0  0  0  0  0  0  0
    0.1824   -0.8564    0.0000 C   0  0  0  0  0  0  0  0  0  0  0  0
    0.1824   -1.6812    0.0000 C   0  0  0  0  0  0  0  0  0  0  0  0
    0.7659   -1.0979    0.0000 C   0  0  0  0  0  0  0  0  0  0  0  0
    0.3572   -0.3811    0.0000 C   0  0  0  0  0  0  0  0  0  0  0  0
  1  2  1  0      
  2  3  1  0      
  3  4  1  0      
  3  5  1  0      
  5  6  1  0      
  6  7  1  0      
  7  8  1  0      
  8  9  1  0      
  9 10  1  0      
 10  5  1  0      
M  STY  1   1 SRU
M  SLB  1   1   1
M  SCN  1   1 HT
M  SAL   1  8   2   3   5   6   7   8   9  10
M  SBL   1  2   3   1
M  SDI   1  4    0.7262    1.8638    0.7262    1.0388
M  SDI   1  4   -0.8138    1.0388   -0.8138    1.8638
M  END
