poly(diethylhexyloxy-p-phenylenevinylene).mol
  ChemDraw01051714582D

 28 28  0  0  0  0  0  0  0  0999 V2000
   -2.5603    0.5834    0.0000 *   0  0  0  0  0  0  0  0  0  0  0  0
   -1.7353    0.5834    0.0000 C   0  0  0  0  0  0  0  0  0  0  0  0
   -1.1521    0.0000    0.0000 C   0  0  0  0  0  0  0  0  0  0  0  0
   -0.3271    0.0000    0.0000 C   0  0  0  0  0  0  0  0  0  0  0  0
    0.0854   -0.7145    0.0000 C   0  0  0  0  0  0  0  0  0  0  0  0
    0.9104   -0.7145    0.0000 C   0  0  0  0  0  0  0  0  0  0  0  0
    1.3229    0.0000    0.0000 C   0  0  0  0  0  0  0  0  0  0  0  0
    0.9104    0.7145    0.0000 C   0  0  0  0  0  0  0  0  0  0  0  0
    0.0854    0.7145    0.0000 C   0  0  0  0  0  0  0  0  0  0  0  0
   -0.3271   -1.4289    0.0000 O   0  0  0  0  0  0  0  0  0  0  0  0
    0.0854   -2.1433    0.0000 C   0  0  0  0  0  0  0  0  0  0  0  0
   -0.3271   -2.8578    0.0000 C   0  0  0  0  0  0  0  0  0  0  0  0
   -1.1521   -2.8578    0.0000 C   0  0  0  0  0  0  0  0  0  0  0  0
   -1.5646   -3.5723    0.0000 C   0  0  0  0  0  0  0  0  0  0  0  0
    0.0854   -3.5723    0.0000 C   0  0  0  0  0  0  0  0  0  0  0  0
   -0.3271   -4.2867    0.0000 C   0  0  0  0  0  0  0  0  0  0  0  0
    0.0854   -5.0011    0.0000 C   0  0  0  0  0  0  0  0  0  0  0  0
   -0.3271   -5.7156    0.0000 C   0  0  0  0  0  0  0  0  0  0  0  0
    2.1478    0.0000    0.0000 *   0  0  0  0  0  0  0  0  0  0  0  0
    1.3229    1.4289    0.0000 O   0  0  0  0  0  0  0  0  0  0  0  0
    0.9104    2.1433    0.0000 C   0  0  0  0  0  0  0  0  0  0  0  0
    1.3229    2.8578    0.0000 C   0  0  0  0  0  0  0  0  0  0  0  0
    2.1478    2.8578    0.0000 C   0  0  0  0  0  0  0  0  0  0  0  0
    2.5603    3.5723    0.0000 C   0  0  0  0  0  0  0  0  0  0  0  0
    0.9104    3.5723    0.0000 C   0  0  0  0  0  0  0  0  0  0  0  0
    1.3229    4.2867    0.0000 C   0  0  0  0  0  0  0  0  0  0  0  0
    0.9104    5.0011    0.0000 C   0  0  0  0  0  0  0  0  0  0  0  0
    1.3229    5.7156    0.0000 C   0  0  0  0  0  0  0  0  0  0  0  0
  1  2  1  0      
  2  3  2  0      
  3  4  1  0      
  4  5  2  0      
  5  6  1  0      
  6  7  2  0      
  7  8  1  0      
  8  9  2  0      
  9  4  1  0      
  5 10  1  0      
 10 11  1  0      
 11 12  1  0      
 12 13  1  0      
 13 14  1  0      
 12 15  1  0      
 15 16  1  0      
 16 17  1  0      
 17 18  1  0      
  7 19  1  0      
  8 20  1  0      
 20 21  1  0      
 21 22  1  0      
 22 23  1  0      
 23 24  1  0      
 22 25  1  0      
 25 26  1  0      
 26 27  1  0      
 27 28  1  0      
M  STY  1   1 SRU
M  SLB  1   1   1
M  SCN  1   1 HT
M  SAL   1 15   2   3   4   5   6   7   8   9  10  11  12  13  14  15  16
M  SAL   1 11  17  18  20  21  22  23  24  25  26  27  28
M  SBL   1  2   1  19
M  SDI   1  4   -2.1877   -0.5775   -2.1877    0.9350
M  SDI   1  4    1.8273    0.9350    1.8273   -0.5775
M  END
