poly(N-vinylcaprolactam).mol
  ChemDraw01051714562D

 12 12  0  0  0  0  0  0  0  0999 V2000
   -0.1615   -1.5224    0.0000 C   0  0  0  0  0  0  0  0  0  0  0  0
    0.6635   -1.5224    0.0000 C   0  0  0  0  0  0  0  0  0  0  0  0
    1.1779   -0.8774    0.0000 C   0  0  0  0  0  0  0  0  0  0  0  0
    0.9943   -0.0731    0.0000 C   0  0  0  0  0  0  0  0  0  0  0  0
    0.2510    0.2849    0.0000 N   0  0  0  0  0  0  0  0  0  0  0  0
   -0.4923   -0.0731    0.0000 C   0  0  0  0  0  0  0  0  0  0  0  0
   -0.6758   -0.8774    0.0000 C   0  0  0  0  0  0  0  0  0  0  0  0
    0.2510    1.1099    0.0000 C   0  0  0  0  0  0  0  0  0  0  0  0
   -0.4634    1.5224    0.0000 C   0  0  0  0  0  0  0  0  0  0  0  0
   -1.1779    1.1099    0.0000 *   0  0  0  0  0  0  0  0  0  0  0  0
    0.9655    1.5224    0.0000 *   0  0  0  0  0  0  0  0  0  0  0  0
   -1.1373    0.4413    0.0000 O   0  0  0  0  0  0  0  0  0  0  0  0
  1  2  1  0      
  2  3  1  0      
  3  4  1  0      
  4  5  1  0      
  5  6  1  0      
  6  7  1  0      
  7  1  1  0      
  5  8  1  0      
  8  9  1  0      
  9 10  1  0      
  8 11  1  0      
  6 12  2  0      
M  STY  1   1 SRU
M  SLB  1   1   1
M  SCN  1   1 HT
M  SAL   1 10   1   2   3   4   5   6   7   8   9  12
M  SBL   1  2  10  11
M  SDI   1  4   -0.8453    0.9798   -0.8453    1.6948
M  SDI   1  4    0.6672    1.6948    0.6672    0.9798
M  END
