polyhexene_oxide.mol
  ChemDraw01051714502D

  9  8  0  0  0  0  0  0  0  0999 V2000
   -2.8580   -0.2063    0.0000 *   0  0  0  0  0  0  0  0  0  0  0  0
   -2.1436    0.2061    0.0000 O   0  0  0  0  0  0  0  0  0  0  0  0
   -1.4289   -0.2063    0.0000 C   0  0  0  0  0  0  0  0  0  0  0  0
   -0.7144    0.2061    0.0000 C   0  0  0  0  0  0  0  0  0  0  0  0
   -0.0000   -0.2063    0.0000 C   0  0  0  0  0  0  0  0  0  0  0  0
    0.7144    0.2062    0.0000 C   0  0  0  0  0  0  0  0  0  0  0  0
    1.4289   -0.2062    0.0000 C   0  0  0  0  0  0  0  0  0  0  0  0
    2.1435    0.2063    0.0000 C   0  0  0  0  0  0  0  0  0  0  0  0
    2.8580   -0.2062    0.0000 *   0  0  0  0  0  0  0  0  0  0  0  0
  1  2  1  0      
  2  3  1  0      
  3  4  1  0      
  4  5  1  0      
  5  6  1  0      
  6  7  1  0      
  7  8  1  0      
  8  9  1  0      
M  STY  1   1 SRU
M  SLB  1   1   1
M  SCN  1   1 HT
M  SAL   1  7   2   3   4   5   6   7   8
M  SBL   1  2   1   8
M  SDI   1  4   -2.6838   -0.4267   -2.6838    0.3708
M  SDI   1  4    2.5137    0.3708    2.5137   -0.4267
M  END
