polydimethylsiloxane.mol
  ChemDraw01051714532D

  6  5  0  0  0  0  0  0  0  0999 V2000
   -1.0717   -0.1510    0.0000 *   0  0  0  0  0  0  0  0  0  0  0  0
   -0.3572   -0.5635    0.0000 O   0  0  0  0  0  0  0  0  0  0  0  0
    0.3572   -0.1510    0.0000 Si  0  0  0  0  0  0  0  0  0  0  0  0
   -0.0553    0.5635    0.0000 C   0  0  0  0  0  0  0  0  0  0  0  0
    0.7697    0.5635    0.0000 C   0  0  0  0  0  0  0  0  0  0  0  0
    1.0717   -0.5635    0.0000 *   0  0  0  0  0  0  0  0  0  0  0  0
  1  2  1  0      
  2  3  1  0      
  3  4  1  0      
  3  5  1  0      
  3  6  1  0      
M  STY  1   1 SRU
M  SLB  1   1   1
M  SCN  1   1 HT
M  SAL   1  4   2   3   4   5
M  SBL   1  2   1   5
M  SDI   1  4   -0.7313   -0.6399   -0.7313    0.0476
M  SDI   1  4    0.7812    0.0476    0.7812   -0.6399
M  END
