polyoctylene_oxide.mol
  ChemDraw01051714512D

 11 10  0  0  0  0  0  0  0  0999 V2000
   -3.5725   -0.2063    0.0000 *   0  0  0  0  0  0  0  0  0  0  0  0
   -2.8580    0.2061    0.0000 O   0  0  0  0  0  0  0  0  0  0  0  0
   -2.1435   -0.2063    0.0000 C   0  0  0  0  0  0  0  0  0  0  0  0
   -1.4289    0.2061    0.0000 C   0  0  0  0  0  0  0  0  0  0  0  0
   -0.7145   -0.2063    0.0000 C   0  0  0  0  0  0  0  0  0  0  0  0
    0.0000    0.2062    0.0000 C   0  0  0  0  0  0  0  0  0  0  0  0
    0.7145   -0.2062    0.0000 C   0  0  0  0  0  0  0  0  0  0  0  0
    1.4289    0.2063    0.0000 C   0  0  0  0  0  0  0  0  0  0  0  0
    2.1435   -0.2062    0.0000 C   0  0  0  0  0  0  0  0  0  0  0  0
    2.8580    0.2063    0.0000 C   0  0  0  0  0  0  0  0  0  0  0  0
    3.5725   -0.2062    0.0000 *   0  0  0  0  0  0  0  0  0  0  0  0
  1  2  1  0      
  2  3  1  0      
  3  4  1  0      
  4  5  1  0      
  5  6  1  0      
  6  7  1  0      
  7  8  1  0      
  8  9  1  0      
  9 10  1  0      
 10 11  1  0      
M  STY  1   1 SRU
M  SLB  1   1   1
M  SCN  1   1 HT
M  SAL   1  9   2   3   4   5   6   7   8   9  10
M  SBL   1  2  10   1
M  SDI   1  4    3.2150    0.3983    3.2150   -0.5367
M  SDI   1  4   -3.3575   -0.5367   -3.3575    0.3983
M  END
