poly(3-dodecylthiophene).mol
  ChemDraw01051715022D

 19 19  0  0  0  0  0  0  0  0999 V2000
   -2.8164   -1.4852    0.0000 C   0  0  0  0  0  0  0  0  0  0  0  0
   -3.6414   -1.4852    0.0000 C   0  0  0  0  0  0  0  0  0  0  0  0
   -3.8964   -2.2698    0.0000 C   0  0  0  0  0  0  0  0  0  0  0  0
   -3.2289   -2.7547    0.0000 S   0  0  0  0  0  0  0  0  0  0  0  0
   -2.5615   -2.2698    0.0000 C   0  0  0  0  0  0  0  0  0  0  0  0
   -4.6810   -2.5247    0.0000 *   0  0  0  0  0  0  0  0  0  0  0  0
   -1.7769   -2.5247    0.0000 *   0  0  0  0  0  0  0  0  0  0  0  0
   -2.3315   -0.8177    0.0000 C   0  0  0  0  0  0  0  0  0  0  0  0
   -1.5065   -0.8177    0.0000 C   0  0  0  0  0  0  0  0  0  0  0  0
   -1.0940   -0.1032    0.0000 C   0  0  0  0  0  0  0  0  0  0  0  0
   -0.2690   -0.1032    0.0000 C   0  0  0  0  0  0  0  0  0  0  0  0
    0.1435    0.6112    0.0000 C   0  0  0  0  0  0  0  0  0  0  0  0
    0.9685    0.6112    0.0000 C   0  0  0  0  0  0  0  0  0  0  0  0
    1.3810    1.3257    0.0000 C   0  0  0  0  0  0  0  0  0  0  0  0
    2.2060    1.3257    0.0000 C   0  0  0  0  0  0  0  0  0  0  0  0
    2.6185    2.0402    0.0000 C   0  0  0  0  0  0  0  0  0  0  0  0
    3.4435    2.0402    0.0000 C   0  0  0  0  0  0  0  0  0  0  0  0
    3.8560    2.7547    0.0000 C   0  0  0  0  0  0  0  0  0  0  0  0
    4.6810    2.7547    0.0000 C   0  0  0  0  0  0  0  0  0  0  0  0
  1  2  1  0      
  2  3  2  0      
  3  4  1  0      
  4  5  1  0      
  5  1  2  0      
  3  6  1  0      
  5  7  1  0      
  1  8  1  0      
  8  9  1  0      
  9 10  1  0      
 10 11  1  0      
 11 12  1  0      
 12 13  1  0      
 13 14  1  0      
 14 15  1  0      
 15 16  1  0      
 16 17  1  0      
 17 18  1  0      
 18 19  1  0      
M  STY  1   1 SRU
M  SLB  1   1   1
M  SCN  1   1 HT
M  SAL   1 15   1   2   3   4   5   8   9  10  11  12  13  14  15  16  17
M  SAL   1  2  18  19
M  SBL   1  2   7   6
M  SDI   1  4   -2.2211   -1.9702   -2.2211   -2.6852
M  SDI   1  4   -4.3386   -2.6852   -4.3386   -1.9702
M  END
