poly(n-butyl_acrylate).mol
  ChemDraw01051714562D

 11 10  0  0  0  0  0  0  0  0999 V2000
   -2.1433    1.0312    0.0000 *   0  0  0  0  0  0  0  0  0  0  0  0
   -1.4289    1.4437    0.0000 C   0  0  0  0  0  0  0  0  0  0  0  0
   -0.7145    1.0312    0.0000 C   0  0  0  0  0  0  0  0  0  0  0  0
    0.0000    1.4438    0.0000 *   0  0  0  0  0  0  0  0  0  0  0  0
   -0.7145    0.2062    0.0000 C   0  0  0  0  0  0  0  0  0  0  0  0
    0.0000   -0.2063    0.0000 O   0  0  0  0  0  0  0  0  0  0  0  0
   -1.4289   -0.2063    0.0000 O   0  0  0  0  0  0  0  0  0  0  0  0
    0.0000   -1.0313    0.0000 C   0  0  0  0  0  0  0  0  0  0  0  0
    0.7145   -1.4438    0.0000 C   0  0  0  0  0  0  0  0  0  0  0  0
    1.4289   -1.0313    0.0000 C   0  0  0  0  0  0  0  0  0  0  0  0
    2.1433   -1.4438    0.0000 C   0  0  0  0  0  0  0  0  0  0  0  0
  1  2  1  0      
  2  3  1  0      
  3  4  1  0      
  3  5  1  0      
  5  6  1  0      
  5  7  2  0      
  6  8  1  0      
  8  9  1  0      
  9 10  1  0      
 10 11  1  0      
M  STY  1   1 SRU
M  SLB  1   1   1
M  SCN  1   1 HT
M  SAL   1  9   2   3   5   6   7   8   9  10  11
M  SBL   1  2   1   3
M  SDI   1  4   -1.8602    0.9512   -1.8602    1.5837
M  SDI   1  4   -0.2927    1.5837   -0.2927    0.9512
M  END
