polycarbonate.mol
  ChemDraw01051714532D

 21 22  0  0  0  0  0  0  0  0999 V2000
   -3.9295   -0.7697    0.0000 *   0  0  0  0  0  0  0  0  0  0  0  0
   -3.2150   -1.1822    0.0000 O   0  0  0  0  0  0  0  0  0  0  0  0
   -2.5005   -0.7697    0.0000 C   0  0  0  0  0  0  0  0  0  0  0  0
   -1.7861   -1.1822    0.0000 C   0  0  0  0  0  0  0  0  0  0  0  0
   -1.0717   -0.7697    0.0000 C   0  0  0  0  0  0  0  0  0  0  0  0
   -1.0717    0.0553    0.0000 C   0  0  0  0  0  0  0  0  0  0  0  0
   -1.7861    0.4678    0.0000 C   0  0  0  0  0  0  0  0  0  0  0  0
   -2.5005    0.0553    0.0000 C   0  0  0  0  0  0  0  0  0  0  0  0
   -0.3572    0.4678    0.0000 C   0  0  0  0  0  0  0  0  0  0  0  0
    0.3572    0.0553    0.0000 C   0  0  0  0  0  0  0  0  0  0  0  0
   -0.7697    1.1822    0.0000 C   0  0  0  0  0  0  0  0  0  0  0  0
    0.0553    1.1822    0.0000 C   0  0  0  0  0  0  0  0  0  0  0  0
    0.3572   -0.7697    0.0000 C   0  0  0  0  0  0  0  0  0  0  0  0
    1.0717   -1.1822    0.0000 C   0  0  0  0  0  0  0  0  0  0  0  0
    1.7861   -0.7697    0.0000 C   0  0  0  0  0  0  0  0  0  0  0  0
    1.7861    0.0553    0.0000 C   0  0  0  0  0  0  0  0  0  0  0  0
    1.0717    0.4678    0.0000 C   0  0  0  0  0  0  0  0  0  0  0  0
    2.5005   -1.1822    0.0000 O   0  0  0  0  0  0  0  0  0  0  0  0
    3.2150   -0.7697    0.0000 C   0  0  0  0  0  0  0  0  0  0  0  0
    3.2150    0.0553    0.0000 O   0  0  0  0  0  0  0  0  0  0  0  0
    3.9295   -1.1822    0.0000 *   0  0  0  0  0  0  0  0  0  0  0  0
  1  2  1  0      
  2  3  1  0      
  3  4  1  0      
  4  5  2  0      
  5  6  1  0      
  6  7  2  0      
  7  8  1  0      
  8  3  2  0      
  6  9  1  0      
  9 10  1  0      
  9 11  1  0      
  9 12  1  0      
 10 13  1  0      
 13 14  2  0      
 14 15  1  0      
 15 16  2  0      
 16 17  1  0      
 17 10  2  0      
 15 18  1  0      
 18 19  1  0      
 19 20  2  0      
 19 21  1  0      
M  STY  1   1 SRU
M  SLB  1   1   1
M  SCN  1   1 HT
M  SAL   1 15   2   3   4   5   6   7   8   9  10  11  12  13  14  15  16
M  SAL   1  4  17  18  19  20
M  SBL   1  2   1  22
M  SDI   1  4   -3.6188   -1.3685   -3.6188   -0.5435
M  SDI   1  4    3.6137   -0.5435    3.6137   -1.3685
M  END
