polythiophene.mol
  ChemDraw01051714482D

  7  7  0  0  0  0  0  0  0  0999 V2000
    0.4125    0.6348    0.0000 C   0  0  0  0  0  0  0  0  0  0  0  0
   -0.4125    0.6348    0.0000 C   0  0  0  0  0  0  0  0  0  0  0  0
   -0.6674   -0.1498    0.0000 C   0  0  0  0  0  0  0  0  0  0  0  0
    0.0000   -0.6348    0.0000 S   0  0  0  0  0  0  0  0  0  0  0  0
    0.6674   -0.1498    0.0000 C   0  0  0  0  0  0  0  0  0  0  0  0
    1.3819   -0.5623    0.0000 *   0  0  0  0  0  0  0  0  0  0  0  0
   -1.3819   -0.5623    0.0000 *   0  0  0  0  0  0  0  0  0  0  0  0
  1  2  1  0      
  2  3  2  0      
  3  4  1  0      
  4  5  1  0      
  5  1  2  0      
  5  6  1  0      
  3  7  1  0      
M  STY  1   1 SRU
M  SLB  1   1   1
M  SCN  1   1 HT
M  SAL   1  5   1   2   3   4   5
M  SBL   1  2   6   7
M  SDI   1  4    1.0150    0.0985    1.0150   -0.6990
M  SDI   1  4   -1.1850   -0.6990   -1.1850    0.0985
M  END
