polyvinyl_chloride.mol
  ChemDraw01051714482D

  5  4  0  0  0  0  0  0  0  0999 V2000
   -1.0716    0.2062    0.0000 *   0  0  0  0  0  0  0  0  0  0  0  0
   -0.3572    0.6187    0.0000 C   0  0  0  0  0  0  0  0  0  0  0  0
    0.3572    0.2062    0.0000 C   0  0  0  0  0  0  0  0  0  0  0  0
    1.0716    0.6187    0.0000 *   0  0  0  0  0  0  0  0  0  0  0  0
    0.3572   -0.6187    0.0000 Cl  0  0  0  0  0  0  0  0  0  0  0  0
  1  2  1  0      
  2  3  1  0      
  3  4  1  0      
  3  5  1  0      
M  STY  1   1 SRU
M  SLB  1   1   1
M  SCN  1   1 HT
M  SAL   1  3   2   3   5
M  SBL   1  2   3   1
M  SDI   1  4    0.7675    0.7495    0.7675   -0.0205
M  SDI   1  4   -0.7450   -0.0205   -0.7450    0.7495
M  END
