polycaprolactone.mol
  ChemDraw01051714532D

 10  9  0  0  0  0  0  0  0  0999 V2000
   -2.8576   -0.6187    0.0000 *   0  0  0  0  0  0  0  0  0  0  0  0
   -2.1432   -0.2062    0.0000 O   0  0  0  0  0  0  0  0  0  0  0  0
   -1.4288   -0.6187    0.0000 C   0  0  0  0  0  0  0  0  0  0  0  0
   -0.7144   -0.2062    0.0000 C   0  0  0  0  0  0  0  0  0  0  0  0
   -0.0000   -0.6187    0.0000 C   0  0  0  0  0  0  0  0  0  0  0  0
    0.7144   -0.2062    0.0000 C   0  0  0  0  0  0  0  0  0  0  0  0
    1.4288   -0.6187    0.0000 C   0  0  0  0  0  0  0  0  0  0  0  0
    2.1432   -0.2062    0.0000 C   0  0  0  0  0  0  0  0  0  0  0  0
    2.8576   -0.6187    0.0000 *   0  0  0  0  0  0  0  0  0  0  0  0
    2.1432    0.6187    0.0000 O   0  0  0  0  0  0  0  0  0  0  0  0
  1  2  1  0      
  2  3  1  0      
  3  4  1  0      
  4  5  1  0      
  5  6  1  0      
  6  7  1  0      
  7  8  1  0      
  8  9  1  0      
  8 10  2  0      
M  STY  1   1 SRU
M  SLB  1   1   1
M  SCN  1   1 HT
M  SAL   1  8   2   3   4   5   6   7   8  10
M  SBL   1  2   1   8
M  SDI   1  4   -2.5738   -0.7645   -2.5738    0.0605
M  SDI   1  4    2.4862    0.0605    2.4862   -0.7645
M  END
