poly(ethyl_ethylene).mol
  ChemDraw01051714582D

  6  5  0  0  0  0  0  0  0  0999 V2000
   -1.0717   -0.8250    0.0000 *   0  0  0  0  0  0  0  0  0  0  0  0
   -0.3572   -0.4125    0.0000 C   0  0  0  0  0  0  0  0  0  0  0  0
    0.3572   -0.8250    0.0000 C   0  0  0  0  0  0  0  0  0  0  0  0
    1.0717   -0.4125    0.0000 *   0  0  0  0  0  0  0  0  0  0  0  0
   -0.3572    0.4125    0.0000 C   0  0  0  0  0  0  0  0  0  0  0  0
    0.3572    0.8250    0.0000 C   0  0  0  0  0  0  0  0  0  0  0  0
  1  2  1  0      
  2  3  1  0      
  3  4  1  0      
  2  5  1  0      
  5  6  1  0      
M  STY  1   1 SRU
M  SLB  1   1   1
M  SCN  1   1 HT
M  SAL   1  4   2   3   5   6
M  SBL   1  2   3   1
M  SDI   1  4    0.7812   -0.2359    0.7812   -0.9784
M  SDI   1  4   -0.7038   -0.9784   -0.7038   -0.2359
M  END
