poly[N-(4-vinylbenzyl)-N,N-diethylamine] .mol
  ChemDraw01051714532D

 16 16  0  0  0  0  0  0  0  0999 V2000
   -1.2978    2.4396    0.0000 *   0  0  0  0  0  0  0  0  0  0  0  0
   -0.5834    2.8521    0.0000 C   0  0  0  0  0  0  0  0  0  0  0  0
    0.1311    2.4396    0.0000 C   0  0  0  0  0  0  0  0  0  0  0  0
    0.8456    2.8521    0.0000 *   0  0  0  0  0  0  0  0  0  0  0  0
    0.1311    1.6146    0.0000 C   0  0  0  0  0  0  0  0  0  0  0  0
   -0.5834    1.2021    0.0000 C   0  0  0  0  0  0  0  0  0  0  0  0
   -0.5834    0.3771    0.0000 C   0  0  0  0  0  0  0  0  0  0  0  0
    0.1311   -0.0354    0.0000 C   0  0  0  0  0  0  0  0  0  0  0  0
    0.8456    0.3771    0.0000 C   0  0  0  0  0  0  0  0  0  0  0  0
    0.8456    1.2021    0.0000 C   0  0  0  0  0  0  0  0  0  0  0  0
    0.1311   -0.8604    0.0000 C   0  0  0  0  0  0  0  0  0  0  0  0
    0.7145   -1.4437    0.0000 N   0  0  0  0  0  0  0  0  0  0  0  0
    1.2978   -2.0271    0.0000 C   0  0  0  0  0  0  0  0  0  0  0  0
    0.1311   -2.0271    0.0000 C   0  0  0  0  0  0  0  0  0  0  0  0
    0.1311   -2.8521    0.0000 C   0  0  0  0  0  0  0  0  0  0  0  0
    1.2978   -2.8521    0.0000 C   0  0  0  0  0  0  0  0  0  0  0  0
  1  2  1  0      
  2  3  1  0      
  3  4  1  0      
  3  5  1  0      
  5  6  2  0      
  6  7  1  0      
  7  8  2  0      
  8  9  1  0      
  9 10  2  0      
 10  5  1  0      
  8 11  1  0      
 11 12  1  0      
 12 13  1  0      
 12 14  1  0      
 14 15  1  0      
 13 16  1  0      
M  STY  1   1 SRU
M  SLB  1   1   1
M  SCN  1   1 HT
M  SAL   1 14   2   3   5   6   7   8   9  10  11  12  13  14  15  16
M  SBL   1  2   3   1
M  SDI   1  4    0.5632    3.0491    0.5632    2.2516
M  SDI   1  4   -1.0868    2.2516   -1.0868    3.0491
M  END
