poly(ethylene-r-butylene).mol
  ChemDraw05121709532D

 10  8  0  0  0  0  0  0  0  0999 V2000
   -2.5567    0.3850    0.0000 *   0  0  0  0  0  0  0  0  0  0  0  0
   -1.8422    0.7975    0.0000 C   0  0  0  0  0  0  0  0  0  0  0  0
   -1.1278    0.3850    0.0000 C   0  0  0  0  0  0  0  0  0  0  0  0
   -0.4133    0.7975    0.0000 *   0  0  0  0  0  0  0  0  0  0  0  0
    0.4133    0.4125    0.0000 *   0  0  0  0  0  0  0  0  0  0  0  0
    1.1278    0.8250    0.0000 C   0  0  0  0  0  0  0  0  0  0  0  0
    1.8422    0.4125    0.0000 C   0  0  0  0  0  0  0  0  0  0  0  0
    2.5567    0.8250    0.0000 *   0  0  0  0  0  0  0  0  0  0  0  0
    1.8422   -0.4125    0.0000 C   0  0  0  0  0  0  0  0  0  0  0  0
    2.5567   -0.8250    0.0000 C   0  0  0  0  0  0  0  0  0  0  0  0
  1  2  1  0      
  2  3  1  0      
  3  4  1  0      
  5  6  1  0      
  6  7  1  0      
  7  8  1  0      
  7  9  1  0      
  9 10  1  0      
M  STY  3   1 COP   2 SRU   3 SRU
M  SLB  1   1   1
M  SST  1   1 RAN
M  SAL   1 10   1   2   3   4   5   6   7   8   9  10
M  SDI   1  4   -3.3438   -1.0701   -3.3438    2.0099
M  SDI   1  4    4.0537    2.0099    4.0537   -1.0701
M  SLB  1   2   2
M  SCN  3   1 HT    2 HT    3 HT
M  SAL   2  2   2   3
M  SBL   2  2   1   3
M  SMT   2 n
M  SDI   2  4   -2.2713    0.2957   -2.2713    0.9008
M  SDI   2  4   -0.7313    0.9008   -0.7313    0.2957
M  SLB  1   3   3
M  SAL   3  4   6   7   9  10
M  SBL   3  2   4   6
M  SMT   3 n
M  SDI   3  4    0.6987    0.3232    0.6987    0.9283
M  SDI   3  4    2.2387    0.9283    2.2387    0.3232
M  END
