poly(3-octylthiophene).mol
  ChemDraw01051715002D

 15 15  0  0  0  0  0  0  0  0999 V2000
   -1.5789   -0.7707    0.0000 C   0  0  0  0  0  0  0  0  0  0  0  0
   -2.4039   -0.7707    0.0000 C   0  0  0  0  0  0  0  0  0  0  0  0
   -2.6589   -1.5553    0.0000 C   0  0  0  0  0  0  0  0  0  0  0  0
   -1.9914   -2.0402    0.0000 S   0  0  0  0  0  0  0  0  0  0  0  0
   -1.3240   -1.5553    0.0000 C   0  0  0  0  0  0  0  0  0  0  0  0
   -3.4435   -1.8102    0.0000 *   0  0  0  0  0  0  0  0  0  0  0  0
   -0.5394   -1.8102    0.0000 *   0  0  0  0  0  0  0  0  0  0  0  0
   -1.0940   -0.1032    0.0000 C   0  0  0  0  0  0  0  0  0  0  0  0
   -0.2690   -0.1032    0.0000 C   0  0  0  0  0  0  0  0  0  0  0  0
    0.1435    0.6113    0.0000 C   0  0  0  0  0  0  0  0  0  0  0  0
    0.9685    0.6113    0.0000 C   0  0  0  0  0  0  0  0  0  0  0  0
    1.3810    1.3257    0.0000 C   0  0  0  0  0  0  0  0  0  0  0  0
    2.2060    1.3257    0.0000 C   0  0  0  0  0  0  0  0  0  0  0  0
    2.6185    2.0402    0.0000 C   0  0  0  0  0  0  0  0  0  0  0  0
    3.4435    2.0402    0.0000 C   0  0  0  0  0  0  0  0  0  0  0  0
  1  2  1  0      
  2  3  2  0      
  3  4  1  0      
  4  5  1  0      
  5  1  2  0      
  3  6  1  0      
  5  7  1  0      
  1  8  1  0      
  8  9  1  0      
  9 10  1  0      
 10 11  1  0      
 11 12  1  0      
 12 13  1  0      
 13 14  1  0      
 14 15  1  0      
M  STY  1   1 SRU
M  SLB  1   1   1
M  SCN  1   1 HT
M  SAL   1 13   1   2   3   4   5   8   9  10  11  12  13  14  15
M  SBL   1  2   7   6
M  SDI   1  4   -0.9561   -1.2827   -0.9561   -2.0802
M  SDI   1  4   -3.1561   -2.0802   -3.1561   -1.2827
M  END
