poly(xylenyl ether).mol
  ChemDraw01051716502D

 11 11  0  0  0  0  0  0  0  0999 V2000
   -1.2375   -0.0656    0.0000 C   0  0  0  0  0  0  0  0  0  0  0  0
   -0.8250   -0.7800    0.0000 C   0  0  0  0  0  0  0  0  0  0  0  0
    0.0000   -0.7800    0.0000 C   0  0  0  0  0  0  0  0  0  0  0  0
    0.4125   -0.0656    0.0000 C   0  0  0  0  0  0  0  0  0  0  0  0
    0.0000    0.6489    0.0000 C   0  0  0  0  0  0  0  0  0  0  0  0
   -0.8250    0.6489    0.0000 C   0  0  0  0  0  0  0  0  0  0  0  0
   -2.0625   -0.0656    0.0000 *   0  0  0  0  0  0  0  0  0  0  0  0
    0.4125    1.3634    0.0000 C   0  0  0  0  0  0  0  0  0  0  0  0
    0.5834   -1.3634    0.0000 C   0  0  0  0  0  0  0  0  0  0  0  0
    1.2375   -0.0656    0.0000 O   0  0  0  0  0  0  0  0  0  0  0  0
    2.0625   -0.0656    0.0000 *   0  0  0  0  0  0  0  0  0  0  0  0
  1  2  2  0      
  2  3  1  0      
  3  4  2  0      
  4  5  1  0      
  5  6  2  0      
  6  1  1  0      
  1  7  1  0      
  5  8  1  0      
  3  9  1  0      
  4 10  1  0      
 10 11  1  0      
M  STY  1   1 SRU
M  SLB  1   1   1
M  SCN  1   1 HT
M  SAL   1  9   1   2   3   4   5   6   8   9  10
M  SBL   1  2   7  11
M  SDI   1  4   -1.7875   -0.5881   -1.7875    0.4844
M  SDI   1  4    1.7050    0.4844    1.7050   -0.5881
M  END
