polyethylene_oxide.mol
  ChemDraw01051714512D

  5  4  0  0  0  0  0  0  0  0999 V2000
   -1.4289   -0.2062    0.0000 *   0  0  0  0  0  0  0  0  0  0  0  0
   -0.7145    0.2062    0.0000 O   0  0  0  0  0  0  0  0  0  0  0  0
   -0.0000   -0.2062    0.0000 C   0  0  0  0  0  0  0  0  0  0  0  0
    0.7145    0.2062    0.0000 C   0  0  0  0  0  0  0  0  0  0  0  0
    1.4289   -0.2062    0.0000 *   0  0  0  0  0  0  0  0  0  0  0  0
  1  2  1  0      
  2  3  1  0      
  3  4  1  0      
  4  5  1  0      
M  STY  1   1 SRU
M  SLB  1   1   1
M  SCN  1   1 HT
M  SAL   1  3   2   3   4
M  SBL   1  2   4   1
M  SDI   1  4    1.0837    0.3434    1.0837   -0.3991
M  SDI   1  4   -1.2263   -0.3991   -1.2263    0.3434
M  END
