poly(3-butylthiophene).mol
  ChemDraw01051715022D

 11 11  0  0  0  0  0  0  0  0999 V2000
   -0.3414   -0.0563    0.0000 C   0  0  0  0  0  0  0  0  0  0  0  0
   -1.1664   -0.0563    0.0000 C   0  0  0  0  0  0  0  0  0  0  0  0
   -1.4214   -0.8408    0.0000 C   0  0  0  0  0  0  0  0  0  0  0  0
   -0.7539   -1.3258    0.0000 S   0  0  0  0  0  0  0  0  0  0  0  0
   -0.0865   -0.8408    0.0000 C   0  0  0  0  0  0  0  0  0  0  0  0
   -2.2060   -1.0957    0.0000 *   0  0  0  0  0  0  0  0  0  0  0  0
    0.6981   -1.0957    0.0000 *   0  0  0  0  0  0  0  0  0  0  0  0
    0.1435    0.6112    0.0000 C   0  0  0  0  0  0  0  0  0  0  0  0
    0.9685    0.6112    0.0000 C   0  0  0  0  0  0  0  0  0  0  0  0
    1.3810    1.3258    0.0000 C   0  0  0  0  0  0  0  0  0  0  0  0
    2.2060    1.3258    0.0000 C   0  0  0  0  0  0  0  0  0  0  0  0
  1  2  1  0      
  2  3  2  0      
  3  4  1  0      
  4  5  1  0      
  5  1  2  0      
  3  6  1  0      
  5  7  1  0      
  1  8  1  0      
  8  9  1  0      
  9 10  1  0      
 10 11  1  0      
M  STY  1   1 SRU
M  SLB  1   1   1
M  SCN  1   1 HT
M  SAL   1  9   1   2   3   4   5   8   9  10  11
M  SBL   1  2   7   6
M  SDI   1  4    0.3089   -0.5402    0.3089   -1.3652
M  SDI   1  4   -1.8636   -1.3652   -1.8636   -0.5402
M  END
