poly(styrene-ran-acrylonitrile).mol
  -INDIGO-05152310502D

  0  0  0  0  0  0  0  0  0  0  0 V3000
M  V30 BEGIN CTAB
M  V30 COUNTS 18 17 0 0 0
M  V30 BEGIN ATOM
M  V30 1 C 2.8646 -0.1899 0.0 0
M  V30 2 C 3.731 -0.6893 0.0 0
M  V30 3 C 1.999 -0.6907 0.0 0
M  V30 4 C 1.1326 -0.1913 0.0 0
M  V30 5 C 1.1318 0.8087 0.0 0
M  V30 6 C 0.267 -0.6921 0.0 0
M  V30 7 C 0.2654 1.3079 0.0 0
M  V30 8 C -0.5994 -0.1927 0.0 0
M  V30 9 C 0.2646 2.3079 0.0 0
M  V30 10 O -1.465 -0.6935 0.0 0
M  V30 11 O -2.3314 -0.1941 0.0 0
M  V30 12 C -3.197 -0.6949 0.0 0
M  V30 13 O -4.0634 -0.1955 0.0 0
M  V30 14 C -0.233 -1.55813 0.0 0
M  V30 15 C 0.267 -2.42415 0.0 0
M  V30 16 C -0.233 -3.29018 0.0 0
M  V30 17 C 3.57171 0.517207 0.0 0
M  V30 18 C 3.31289 1.48313 0.0 0
M  V30 END ATOM
M  V30 BEGIN BOND
M  V30 1 1 2 1
M  V30 2 1 1 3
M  V30 3 1 3 4
M  V30 4 1 4 5
M  V30 5 4 5 7
M  V30 6 4 7 9
M  V30 7 1 4 6
M  V30 8 1 6 8
M  V30 9 1 8 10
M  V30 10 4 10 11
M  V30 11 4 11 12
M  V30 12 4 12 13
M  V30 13 1 6 14
M  V30 14 1 14 15
M  V30 15 1 15 16
M  V30 16 1 1 17
M  V30 17 1 17 18
M  V30 END BOND
M  V30 END CTAB
M  END
