APFO-3.mol
  ChemDraw01051717342D

 50 56  0  0  0  0  0  0  0  0999 V2000
   -3.8003   -1.7265    0.0000 C   0  0  0  0  0  0  0  0  0  0  0  0
   -3.3878   -2.4410    0.0000 C   0  0  0  0  0  0  0  0  0  0  0  0
   -2.5628   -2.4410    0.0000 C   0  0  0  0  0  0  0  0  0  0  0  0
   -2.1503   -1.7265    0.0000 C   0  0  0  0  0  0  0  0  0  0  0  0
   -2.5628   -1.0120    0.0000 C   0  0  0  0  0  0  0  0  0  0  0  0
   -3.3878   -1.0120    0.0000 C   0  0  0  0  0  0  0  0  0  0  0  0
   -1.3534   -1.5130    0.0000 C   0  0  0  0  0  0  0  0  0  0  0  0
   -1.3102   -0.6891    0.0000 C   0  0  0  0  0  0  0  0  0  0  0  0
   -2.0804   -0.3934    0.0000 C   0  0  0  0  0  0  0  0  0  0  0  0
   -0.6615   -1.9623    0.0000 C   0  0  0  0  0  0  0  0  0  0  0  0
    0.0736   -1.5877    0.0000 C   0  0  0  0  0  0  0  0  0  0  0  0
    0.1168   -0.7639    0.0000 C   0  0  0  0  0  0  0  0  0  0  0  0
   -0.5751   -0.3146    0.0000 C   0  0  0  0  0  0  0  0  0  0  0  0
    0.8312   -0.3514    0.0000 C   0  0  0  0  0  0  0  0  0  0  0  0
    1.5457   -0.7639    0.0000 S   0  0  0  0  0  0  0  0  0  0  0  0
    2.1588   -0.2118    0.0000 C   0  0  0  0  0  0  0  0  0  0  0  0
    1.8232    0.5418    0.0000 C   0  0  0  0  0  0  0  0  0  0  0  0
    1.0028    0.4556    0.0000 C   0  0  0  0  0  0  0  0  0  0  0  0
    2.9557   -0.4254    0.0000 C   0  0  0  0  0  0  0  0  0  0  0  0
    3.1692   -1.2223    0.0000 C   0  0  0  0  0  0  0  0  0  0  0  0
    3.9661   -1.4358    0.0000 C   0  0  0  0  0  0  0  0  0  0  0  0
    4.5495   -0.8524    0.0000 C   0  0  0  0  0  0  0  0  0  0  0  0
    4.3359   -0.0555    0.0000 C   0  0  0  0  0  0  0  0  0  0  0  0
    3.5390    0.1580    0.0000 C   0  0  0  0  0  0  0  0  0  0  0  0
    4.7853    0.6364    0.0000 N   0  0  0  0  0  0  0  0  0  0  0  0
    4.2661    1.2775    0.0000 S   0  0  0  0  0  0  0  0  0  0  0  0
    3.4959    0.9819    0.0000 N   0  0  0  0  0  0  0  0  0  0  0  0
    5.3463   -1.0659    0.0000 C   0  0  0  0  0  0  0  0  0  0  0  0
    5.7588   -1.7804    0.0000 S   0  0  0  0  0  0  0  0  0  0  0  0
    6.5658   -1.6089    0.0000 C   0  0  0  0  0  0  0  0  0  0  0  0
    6.6521   -0.7884    0.0000 C   0  0  0  0  0  0  0  0  0  0  0  0
    5.8984   -0.4529    0.0000 C   0  0  0  0  0  0  0  0  0  0  0  0
    7.1492   -2.1923    0.0000 *   0  0  0  0  0  0  0  0  0  0  0  0
   -4.6253   -1.7265    0.0000 *   0  0  0  0  0  0  0  0  0  0  0  0
   -2.7949    0.0191    0.0000 C   0  0  0  0  0  0  0  0  0  0  0  0
   -1.6679    0.3210    0.0000 C   0  0  0  0  0  0  0  0  0  0  0  0
   -1.8815    1.1179    0.0000 C   0  0  0  0  0  0  0  0  0  0  0  0
   -3.0084    0.8160    0.0000 C   0  0  0  0  0  0  0  0  0  0  0  0
   -3.8053    1.0295    0.0000 C   0  0  0  0  0  0  0  0  0  0  0  0
   -1.2981    1.7013    0.0000 C   0  0  0  0  0  0  0  0  0  0  0  0
   -0.5012    1.4878    0.0000 C   0  0  0  0  0  0  0  0  0  0  0  0
    0.0822    2.0711    0.0000 C   0  0  0  0  0  0  0  0  0  0  0  0
    0.8790    1.8576    0.0000 C   0  0  0  0  0  0  0  0  0  0  0  0
    1.4624    2.4410    0.0000 C   0  0  0  0  0  0  0  0  0  0  0  0
    2.2593    2.2274    0.0000 C   0  0  0  0  0  0  0  0  0  0  0  0
   -4.3887    0.4461    0.0000 C   0  0  0  0  0  0  0  0  0  0  0  0
   -5.1856    0.6596    0.0000 C   0  0  0  0  0  0  0  0  0  0  0  0
   -5.7689    0.0763    0.0000 C   0  0  0  0  0  0  0  0  0  0  0  0
   -6.5658    0.2898    0.0000 C   0  0  0  0  0  0  0  0  0  0  0  0
   -7.1492   -0.2936    0.0000 C   0  0  0  0  0  0  0  0  0  0  0  0
  1  2  2  0      
  2  3  1  0      
  3  4  2  0      
  4  5  1  0      
  5  6  2  0      
  6  1  1  0      
  4  7  1  0      
  7  8  2  0      
  8  9  1  0      
  9  5  1  0      
  7 10  1  0      
 10 11  2  0      
 11 12  1  0      
 12 13  2  0      
 13  8  1  0      
 12 14  1  0      
 14 15  1  0      
 15 16  1  0      
 16 17  2  0      
 17 18  1  0      
 18 14  2  0      
 16 19  1  0      
 19 20  2  0      
 20 21  1  0      
 21 22  2  0      
 22 23  1  0      
 23 24  1  0      
 24 19  1  0      
 23 25  2  0      
 25 26  1  0      
 26 27  1  0      
 27 24  2  0      
 22 28  1  0      
 28 29  1  0      
 29 30  1  0      
 30 31  2  0      
 31 32  1  0      
 32 28  2  0      
 30 33  1  0      
  1 34  1  0      
  9 35  1  0      
  9 36  1  0      
 36 37  1  0      
 35 38  1  0      
 38 39  1  0      
 37 40  1  0      
 40 41  1  0      
 41 42  1  0      
 42 43  1  0      
 43 44  1  0      
 44 45  1  0      
 39 46  1  0      
 46 47  1  0      
 47 48  1  0      
 48 49  1  0      
 49 50  1  0      
M  STY  1   1 SRU
M  SLB  1   1   1
M  SCN  1   1 HT
M  SAL   1 15   1   2   3   4   5   6   7   8   9  10  11  12  13  14  15
M  SAL   1 15  16  17  18  19  20  21  22  23  24  25  26  27  28  29  30
M  SAL   1 15  31  32  35  36  37  38  39  40  41  42  43  44  45  46  47
M  SAL   1  3  48  49  50
M  SBL   1  2  40  39
M  SDI   1  4   -4.2678   -2.3040   -4.2678   -1.1215
M  SDI   1  4    6.8972   -1.1215    6.8972   -2.3040
M  END
