polylactic_acid.mol
  ChemDraw01051714512D

  7  6  0  0  0  0  0  0  0  0999 V2000
   -1.4289   -0.2062    0.0000 *   0  0  0  0  0  0  0  0  0  0  0  0
   -0.7145    0.2062    0.0000 C   0  0  0  0  0  0  0  0  0  0  0  0
   -0.7145    1.0312    0.0000 C   0  0  0  0  0  0  0  0  0  0  0  0
   -0.0000   -0.2062    0.0000 C   0  0  0  0  0  0  0  0  0  0  0  0
   -0.0000   -1.0312    0.0000 O   0  0  0  0  0  0  0  0  0  0  0  0
    0.7145    0.2062    0.0000 O   0  0  0  0  0  0  0  0  0  0  0  0
    1.4289   -0.2062    0.0000 *   0  0  0  0  0  0  0  0  0  0  0  0
  1  2  1  0      
  2  3  1  0      
  2  4  1  0      
  4  5  2  0      
  4  6  1  0      
  6  7  1  0      
M  STY  1   1 SRU
M  SLB  1   1   1
M  SCN  1   1 HT
M  SAL   1  5   2   3   4   5   6
M  SBL   1  2   6   1
M  SDI   1  4    1.0425    0.3987    1.0425   -0.3438
M  SDI   1  4   -1.1850   -0.3438   -1.1850    0.3987
M  END
